
No compatibility mode selected!

Warning: Unusual leading characters like ')' or others out of '= [] ? () & % $"!:,;\f'
    in netlist or included files, will be replaced with '*'.
    Check line no 5:  )


Circuit: * /home/nalinnet36/desktop/nalin_esim/try1/try1.cir

Reducing trtol to 1 for xspice 'A' devices
Doing analysis at TEMP = 27.000000 and TNOM = 27.000000

Warning: v2: no DC value, transient time 0 value used
Warning: v6: no DC value, transient time 0 value used
Warning: v1: no DC value, transient time 0 value used
=============nali_inverter : New Iteration===========
Instance : 0

Inside foo before eval.....
inv_in=0
inv_out=0

Inside foo after eval.....
inv_in=0
inv_out=1
=============nali_inverter : New Iteration===========
Instance : 1

Inside foo before eval.....
inv_in=0
inv_out=0

Inside foo after eval.....
inv_in=1
inv_out=0
=============nali_inverter : New Iteration===========
Instance : 2

Inside foo before eval.....
inv_in=0
inv_out=0

Inside foo after eval.....
inv_in=0
inv_out=1
=============nali_inverter : New Iteration===========
Instance : 3

Inside foo before eval.....
inv_in=0
inv_out=0

Inside foo after eval.....
inv_in=1
inv_out=0
=============nali_counter : New Iteration===========
Instance : 0

Inside foo before eval.....
clk=0
rst=0
count=0

Inside foo after eval.....
clk=0
rst=0
count=0
=============nali_16_mux : New Iteration===========
Instance : 0

Inside foo before eval.....
in=0
s=0
out=0

Inside foo after eval.....
in=0
s=0
out=0
=============nali_inverter : New Iteration===========
Instance : 0

Inside foo before eval.....
inv_in=0
inv_out=1

Inside foo after eval.....
inv_in=0
inv_out=1
=============nali_inverter : New Iteration===========
Instance : 2

Inside foo before eval.....
inv_in=0
inv_out=1

Inside foo after eval.....
inv_in=0
inv_out=1
=============nali_counter : New Iteration===========
Instance : 0

Inside foo before eval.....
clk=0
rst=0
count=0

Inside foo after eval.....
clk=0
rst=0
count=0
=============nali_16_mux : New Iteration===========
Instance : 0

Inside foo before eval.....
in=0
s=0
out=0

Inside foo after eval.....
in=0
s=0
out=0
=============nali_inverter : New Iteration===========
Instance : 1

Inside foo before eval.....
inv_in=1
inv_out=0

Inside foo after eval.....
inv_in=1
inv_out=0
=============nali_inverter : New Iteration===========
Instance : 3

Inside foo before eval.....
inv_in=1
inv_out=0

Inside foo after eval.....
inv_in=1
inv_out=0
=============nali_inverter : New Iteration===========
Instance : 2

Inside foo before eval.....
inv_in=0
inv_out=1

Inside foo after eval.....
inv_in=1
inv_out=0
=============nali_counter : New Iteration===========
Instance : 0

Inside foo before eval.....
clk=0
rst=0
count=0

Inside foo after eval.....
clk=1
rst=1
count=0
=============nali_16_mux : New Iteration===========
Instance : 0

Inside foo before eval.....
in=0
s=0
out=0

Inside foo after eval.....
in=273
s=0
out=1
=============nali_inverter : New Iteration===========
Instance : 3

Inside foo before eval.....
inv_in=1
inv_out=0

Inside foo after eval.....
inv_in=0
inv_out=1
=============nali_counter : New Iteration===========
Instance : 0

Inside foo before eval.....
clk=1
rst=1
count=0

Inside foo after eval.....
clk=0
rst=1
count=0

Initial Transient Solution
--------------------------

Node                                   Voltage
----                                   -------
vac                                          0
v_rec                               0.00139771
f_out                               0.00365991
x2.net-_q1-pad2_                    0.00137318
x2.net-_q1-pad1_                    0.00139771
x2.net-_q1-pad3_                   2.38502e-11
x2.net-_q2-pad2_                   1.47254e-11
x2.net-_q10-pad2_                  2.70825e-12
x2.net-_q2-pad1_                   0.000952592
x2.net-_q2-pad3_                   0.000455442
x2.net-_q3-pad1_                   0.000455442
x2.net-_q3-pad2_                   1.13903e-11
x2.net-_c1-pad2_                   0.000455442
x2.net-_q6-pad3_                   2.50297e-13
x2.net-_q7-pad3_                     0.0014082
x2.net-_q12-pad3_                  0.000455442
x2.net-_q12-pad2_                   0.00118983
x2.net-_q5-pad3_                    0.00139771
x2.net-_q10-pad1_                  0.000886423
x2.net-_q9-pad3_                    0.00139771
x2.net-_c1-pad1_                   0.000886423
x2.net-_q11-pad3_                  1.26481e-11
x2.net-_q15-pad2_                   0.00365981
x2.net-_r15-pad2_                   0.00140174
x2.net-_q16-pad3_                   0.00365991
x2.net-_q17-pad3_                   0.00365991
x1.18                                 -27.0596
x1.23                               0.00122572
net-_c1-pad1_                       0.00393167
x1.9                                         5
x1.2                                   1.78601
net-_r1-pad2_                       0.00414132
x1.20                                 -27.0596
x1.17                                    14.87
x1.19                                    14.87
net-_c2-pad1_                       0.00244467
x1.11                                        5
x1.12                                        0
out_as                                       5
x3.net-_q1-pad1_                       11.4588
vcin                                         0
x3.net-_q1-pad3_                       3.45908
vh                                     7.99731
x3.net-_q2-pad3_                       7.45505
x3.net-_q3-pad2_                       -11.725
x3.net-_q13-pad1_                       6.9177
x3.net-_c1-pad2_                       -10.724
dc1                                         12
x3.net-_q3-pad3_                           -12
?                                      -11.995
dc2                                        -12
x3.net-_q12-pad1_                     -11.3652
x3.net-_q13-pad3_                     -11.9031
x3.net-_q10-pad1_                      11.3645
x3.net-_c1-pad1_                      -10.2728
x3.net-_q14-pad2_                     -10.6845
x3.net-_q14-pad3_                     -11.3204
x3.net-_q15-pad2_                      -11.325
x3.net-_q15-pad3_                     -11.9651
x3.net-_q18-pad3_                     -10.7933
cout                                  -10.7936
x3.net-_q19-pad3_                     -10.7941
x4.net-_q1-pad1_                       11.4604
vl                                      3.9974
x4.net-_q1-pad3_                       3.45798
x4.net-_q2-pad3_                       1.46079
x4.net-_q3-pad2_                      -10.9264
x4.net-_q13-pad1_                      2.92112
x4.net-_c1-pad2_                       -11.991
x4.net-_q3-pad3_                      -11.4541
x4.net-_q12-pad1_                     -11.3652
x4.net-_q13-pad3_                      -11.904
x4.net-_q10-pad1_                      11.3667
x4.net-_c1-pad1_                        11.996
x4.net-_q14-pad2_                       11.996
x4.net-_q14-pad3_                       11.996
x4.net-_q15-pad2_                          -12
x4.net-_q15-pad3_                          -12
x4.net-_q18-pad3_                      11.9931
cout1                                  11.9931
x4.net-_q19-pad3_                      11.9931
rst                                          5
in1                                          5
bout                                         0
bout1                                        5
o_xnor                                       0
c3                                           0
c2                                           0
c1                                           0
c0                                           0
out                                          5
gnd                                          0
e.x1.e1#branch                               0
e.x1.e2#branch                               0
v3#branch                                    0
v2#branch                                    0
v4#branch                            0.0019567
v6#branch                          2.78727e-11
v5#branch                          -0.00235644
v1#branch                          7.90248e-11
a.x1.a4#branch_1_0                           0
a.x1.a3#branch_1_0                           0
a9#branch_1_0                                0
a8#branch_1_0                                0
a8#branch_1_1                                0
a8#branch_1_2                                0
a8#branch_1_3                                0
a6#branch_1_0                                0
a4#branch_1_0                                0
a2#branch_1_0                                0
a.x1.a6#branch_1_0                 -0.00214266
a.x1.a5#branch_1_0                           0

=============nali_inverter : New Iteration===========
Instance : 2

Inside foo before eval.....
inv_in=1
inv_out=0

Inside foo after eval.....
inv_in=0
inv_out=1
=============nali_inverter : New Iteration===========
Instance : 3

Inside foo before eval.....
inv_in=0
inv_out=1

Inside foo after eval.....
inv_in=1
inv_out=0
=============nali_counter : New Iteration===========
Instance : 0

Inside foo before eval.....
clk=0
rst=1
count=0

Inside foo after eval.....
clk=1
rst=1
count=0
=============nali_counter : New Iteration===========
Instance : 0

Inside foo before eval.....
clk=1
rst=1
count=0

Inside foo after eval.....
clk=1
rst=1
count=0
=============nali_inverter : New Iteration===========
Instance : 0

Inside foo before eval.....
inv_in=0
inv_out=1

Inside foo after eval.....
inv_in=1
inv_out=0
=============nali_inverter : New Iteration===========
Instance : 1

Inside foo before eval.....
inv_in=1
inv_out=0

Inside foo after eval.....
inv_in=0
inv_out=1
=============nali_counter : New Iteration===========
Instance : 0

Inside foo before eval.....
clk=1
rst=1
count=0

Inside foo after eval.....
clk=1
rst=1
count=0
=============nali_counter : New Iteration===========
Instance : 0

Inside foo before eval.....
clk=1
rst=1
count=0

Inside foo after eval.....
clk=0
rst=1
count=0
=============nali_inverter : New Iteration===========
Instance : 0

Inside foo before eval.....
inv_in=1
inv_out=0

Inside foo after eval.....
inv_in=1
inv_out=0
=============nali_inverter : New Iteration===========
Instance : 0

Inside foo before eval.....
inv_in=1
inv_out=0

Inside foo after eval.....
inv_in=0
inv_out=1
=============nali_inverter : New Iteration===========
Instance : 1

Inside foo before eval.....
inv_in=0
inv_out=1

Inside foo after eval.....
inv_in=1
inv_out=0
=============nali_counter : New Iteration===========
Instance : 0

Inside foo before eval.....
clk=0
rst=1
count=0

Inside foo after eval.....
clk=1
rst=1
count=0
=============nali_counter : New Iteration===========
Instance : 0

Inside foo before eval.....
clk=1
rst=1
count=0

Inside foo after eval.....
clk=1
rst=1
count=0
=============nali_inverter : New Iteration===========
Instance : 2

Inside foo before eval.....
inv_in=0
inv_out=1

Inside foo after eval.....
inv_in=1
inv_out=0
=============nali_inverter : New Iteration===========
Instance : 3

Inside foo before eval.....
inv_in=1
inv_out=0

Inside foo after eval.....
inv_in=0
inv_out=1
=============nali_16_mux : New Iteration===========
Instance : 0

Inside foo before eval.....
in=273
s=0
out=1

Inside foo after eval.....
in=257
s=0
out=1
=============nali_counter : New Iteration===========
Instance : 0

Inside foo before eval.....
clk=1
rst=1
count=0

Inside foo after eval.....
clk=1
rst=1
count=0
=============nali_counter : New Iteration===========
Instance : 0

Inside foo before eval.....
clk=1
rst=1
count=0

Inside foo after eval.....
clk=0
rst=1
count=0
=============nali_16_mux : New Iteration===========
Instance : 0

Inside foo before eval.....
in=257
s=0
out=1

Inside foo after eval.....
in=273
s=0
out=1
=============nali_16_mux : New Iteration===========
Instance : 0

Inside foo before eval.....
in=273
s=0
out=1

Inside foo after eval.....
in=273
s=0
out=1
=============nali_16_mux : New Iteration===========
Instance : 0

Inside foo before eval.....
in=273
s=0
out=1

Inside foo after eval.....
in=257
s=0
out=1
=============nali_inverter : New Iteration===========
Instance : 2

Inside foo before eval.....
inv_in=1
inv_out=0

Inside foo after eval.....
inv_in=0
inv_out=1
=============nali_inverter : New Iteration===========
Instance : 3

Inside foo before eval.....
inv_in=0
inv_out=1

Inside foo after eval.....
inv_in=1
inv_out=0
=============nali_counter : New Iteration===========
Instance : 0

Inside foo before eval.....
clk=0
rst=1
count=0

Inside foo after eval.....
clk=1
rst=1
count=0
=============nali_counter : New Iteration===========
Instance : 0

Inside foo before eval.....
clk=1
rst=1
count=0

Inside foo after eval.....
clk=1
rst=1
count=0
=============nali_inverter : New Iteration===========
Instance : 0

Inside foo before eval.....
inv_in=0
inv_out=1

Inside foo after eval.....
inv_in=1
inv_out=0
=============nali_inverter : New Iteration===========
Instance : 1

Inside foo before eval.....
inv_in=1
inv_out=0

Inside foo after eval.....
inv_in=0
inv_out=1
=============nali_counter : New Iteration===========
Instance : 0

Inside foo before eval.....
clk=1
rst=1
count=0

Inside foo after eval.....
clk=1
rst=1
count=0
=============nali_counter : New Iteration===========
Instance : 0

Inside foo before eval.....
clk=1
rst=1
count=0

Inside foo after eval.....
clk=0
rst=1
count=0
=============nali_16_mux : New Iteration===========
Instance : 0

Inside foo before eval.....
in=257
s=0
out=1

Inside foo after eval.....
in=273
s=0
out=1
=============nali_16_mux : New Iteration===========
Instance : 0

Inside foo before eval.....
in=273
s=0
out=1

Inside foo after eval.....
in=273
s=0
out=1
=============nali_inverter : New Iteration===========
Instance : 0

Inside foo before eval.....
inv_in=1
inv_out=0

Inside foo after eval.....
inv_in=0
inv_out=1
=============nali_inverter : New Iteration===========
Instance : 1

Inside foo before eval.....
inv_in=0
inv_out=1

Inside foo after eval.....
inv_in=1
inv_out=0
=============nali_counter : New Iteration===========
Instance : 0

Inside foo before eval.....
clk=0
rst=1
count=0

Inside foo after eval.....
clk=1
rst=1
count=0
=============nali_counter : New Iteration===========
Instance : 0

Inside foo before eval.....
clk=1
rst=1
count=0

Inside foo after eval.....
clk=1
rst=1
count=0
=============nali_16_mux : New Iteration===========
Instance : 0

Inside foo before eval.....
in=273
s=0
out=1

Inside foo after eval.....
in=257
s=0
out=1
=============nali_inverter : New Iteration===========
Instance : 2

Inside foo before eval.....
inv_in=0
inv_out=1

Inside foo after eval.....
inv_in=1
inv_out=0
=============nali_inverter : New Iteration===========
Instance : 3

Inside foo before eval.....
inv_in=1
inv_out=0

Inside foo after eval.....
inv_in=0
inv_out=1
=============nali_counter : New Iteration===========
Instance : 0

Inside foo before eval.....
clk=1
rst=1
count=0

Inside foo after eval.....
clk=1
rst=1
count=0
=============nali_counter : New Iteration===========
Instance : 0

Inside foo before eval.....
clk=1
rst=1
count=0

Inside foo after eval.....
clk=0
rst=1
count=0
=============nali_16_mux : New Iteration===========
Instance : 0

Inside foo before eval.....
in=257
s=0
out=1

Inside foo after eval.....
in=273
s=0
out=1
=============nali_16_mux : New Iteration===========
Instance : 0

Inside foo before eval.....
in=273
s=0
out=1

Inside foo after eval.....
in=273
s=0
out=1
=============nali_16_mux : New Iteration===========
Instance : 0

Inside foo before eval.....
in=273
s=0
out=1

Inside foo after eval.....
in=257
s=0
out=1
=============nali_inverter : New Iteration===========
Instance : 2

Inside foo before eval.....
inv_in=1
inv_out=0

Inside foo after eval.....
inv_in=0
inv_out=1
=============nali_inverter : New Iteration===========
Instance : 3

Inside foo before eval.....
inv_in=0
inv_out=1

Inside foo after eval.....
inv_in=1
inv_out=0
=============nali_counter : New Iteration===========
Instance : 0

Inside foo before eval.....
clk=0
rst=1
count=0

Inside foo after eval.....
clk=1
rst=1
count=0
=============nali_counter : New Iteration===========
Instance : 0

Inside foo before eval.....
clk=1
rst=1
count=0

Inside foo after eval.....
clk=1
rst=1
count=0
=============nali_inverter : New Iteration===========
Instance : 0

Inside foo before eval.....
inv_in=0
inv_out=1

Inside foo after eval.....
inv_in=1
inv_out=0
=============nali_inverter : New Iteration===========
Instance : 1

Inside foo before eval.....
inv_in=1
inv_out=0

Inside foo after eval.....
inv_in=0
inv_out=1
=============nali_counter : New Iteration===========
Instance : 0

Inside foo before eval.....
clk=1
rst=1
count=0

Inside foo after eval.....
clk=1
rst=1
count=0
=============nali_counter : New Iteration===========
Instance : 0

Inside foo before eval.....
clk=1
rst=1
count=0

Inside foo after eval.....
clk=0
rst=1
count=0
=============nali_counter : New Iteration===========
Instance : 0

Inside foo before eval.....
clk=0
rst=1
count=0

Inside foo after eval.....
clk=0
rst=1
count=0
=============nali_counter : New Iteration===========
Instance : 0

Inside foo before eval.....
clk=0
rst=1
count=0

Inside foo after eval.....
clk=0
rst=0
count=0
=============nali_16_mux : New Iteration===========
Instance : 0

Inside foo before eval.....
in=257
s=0
out=1

Inside foo after eval.....
in=273
s=0
out=1
=============nali_16_mux : New Iteration===========
Instance : 0

Inside foo before eval.....
in=273
s=0
out=1

Inside foo after eval.....
in=273
s=0
out=1
=============nali_inverter : New Iteration===========
Instance : 0

Inside foo before eval.....
inv_in=1
inv_out=0

Inside foo after eval.....
inv_in=0
inv_out=1
=============nali_inverter : New Iteration===========
Instance : 1

Inside foo before eval.....
inv_in=0
inv_out=1

Inside foo after eval.....
inv_in=1
inv_out=0
=============nali_counter : New Iteration===========
Instance : 0

Inside foo before eval.....
clk=0
rst=0
count=0

Inside foo after eval.....
clk=1
rst=0
count=1
=============nali_counter : New Iteration===========
Instance : 0

Inside foo before eval.....
clk=1
rst=0
count=1

Inside foo after eval.....
clk=1
rst=0
count=1
=============nali_16_mux : New Iteration===========
Instance : 0

Inside foo before eval.....
in=273
s=0
out=1

Inside foo after eval.....
in=273
s=1
out=0
=============nali_16_mux : New Iteration===========
Instance : 0

Inside foo before eval.....
in=273
s=1
out=0

Inside foo after eval.....
in=257
s=1
out=0
=============nali_inverter : New Iteration===========
Instance : 2

Inside foo before eval.....
inv_in=0
inv_out=1

Inside foo after eval.....
inv_in=1
inv_out=0
=============nali_inverter : New Iteration===========
Instance : 3

Inside foo before eval.....
inv_in=1
inv_out=0

Inside foo after eval.....
inv_in=0
inv_out=1
=============nali_counter : New Iteration===========
Instance : 0

Inside foo before eval.....
clk=1
rst=0
count=1

Inside foo after eval.....
clk=1
rst=0
count=1
=============nali_counter : New Iteration===========
Instance : 0

Inside foo before eval.....
clk=1
rst=0
count=1

Inside foo after eval.....
clk=0
rst=0
count=1
=============nali_16_mux : New Iteration===========
Instance : 0

Inside foo before eval.....
in=257
s=1
out=0

Inside foo after eval.....
in=273
s=1
out=0
=============nali_16_mux : New Iteration===========
Instance : 0

Inside foo before eval.....
in=273
s=1
out=0

Inside foo after eval.....
in=273
s=1
out=0
=============nali_16_mux : New Iteration===========
Instance : 0

Inside foo before eval.....
in=273
s=1
out=0

Inside foo after eval.....
in=257
s=1
out=0
=============nali_inverter : New Iteration===========
Instance : 2

Inside foo before eval.....
inv_in=1
inv_out=0

Inside foo after eval.....
inv_in=0
inv_out=1
=============nali_inverter : New Iteration===========
Instance : 3

Inside foo before eval.....
inv_in=0
inv_out=1

Inside foo after eval.....
inv_in=1
inv_out=0
=============nali_counter : New Iteration===========
Instance : 0

Inside foo before eval.....
clk=0
rst=0
count=1

Inside foo after eval.....
clk=1
rst=0
count=2
=============nali_counter : New Iteration===========
Instance : 0

Inside foo before eval.....
clk=1
rst=0
count=2

Inside foo after eval.....
clk=1
rst=0
count=2
=============nali_16_mux : New Iteration===========
Instance : 0

Inside foo before eval.....
in=257
s=1
out=0

Inside foo after eval.....
in=257
s=2
out=0
=============nali_inverter : New Iteration===========
Instance : 0

Inside foo before eval.....
inv_in=0
inv_out=1

Inside foo after eval.....
inv_in=1
inv_out=0
=============nali_inverter : New Iteration===========
Instance : 1

Inside foo before eval.....
inv_in=1
inv_out=0

Inside foo after eval.....
inv_in=0
inv_out=1
=============nali_counter : New Iteration===========
Instance : 0

Inside foo before eval.....
clk=1
rst=0
count=2

Inside foo after eval.....
clk=1
rst=0
count=2
=============nali_counter : New Iteration===========
Instance : 0

Inside foo before eval.....
clk=1
rst=0
count=2

Inside foo after eval.....
clk=0
rst=0
count=2
=============nali_16_mux : New Iteration===========
Instance : 0

Inside foo before eval.....
in=257
s=2
out=0

Inside foo after eval.....
in=273
s=2
out=0
=============nali_16_mux : New Iteration===========
Instance : 0

Inside foo before eval.....
in=273
s=2
out=0

Inside foo after eval.....
in=273
s=2
out=0
=============nali_16_mux : New Iteration===========
Instance : 0

Inside foo before eval.....
in=273
s=2
out=0

Inside foo after eval.....
in=257
s=2
out=0
=============nali_inverter : New Iteration===========
Instance : 0

Inside foo before eval.....
inv_in=1
inv_out=0

Inside foo after eval.....
inv_in=0
inv_out=1
=============nali_inverter : New Iteration===========
Instance : 1

Inside foo before eval.....
inv_in=0
inv_out=1

Inside foo after eval.....
inv_in=1
inv_out=0
=============nali_counter : New Iteration===========
Instance : 0

Inside foo before eval.....
clk=0
rst=0
count=2

Inside foo after eval.....
clk=1
rst=0
count=3
=============nali_counter : New Iteration===========
Instance : 0

Inside foo before eval.....
clk=1
rst=0
count=3

Inside foo after eval.....
clk=1
rst=0
count=3
=============nali_16_mux : New Iteration===========
Instance : 0

Inside foo before eval.....
in=257
s=2
out=0

Inside foo after eval.....
in=257
s=3
out=0
=============nali_inverter : New Iteration===========
Instance : 2

Inside foo before eval.....
inv_in=0
inv_out=1

Inside foo after eval.....
inv_in=1
inv_out=0
=============nali_inverter : New Iteration===========
Instance : 3

Inside foo before eval.....
inv_in=1
inv_out=0

Inside foo after eval.....
inv_in=0
inv_out=1
=============nali_counter : New Iteration===========
Instance : 0

Inside foo before eval.....
clk=1
rst=0
count=3

Inside foo after eval.....
clk=1
rst=0
count=3
=============nali_counter : New Iteration===========
Instance : 0

Inside foo before eval.....
clk=1
rst=0
count=3

Inside foo after eval.....
clk=0
rst=0
count=3
=============nali_16_mux : New Iteration===========
Instance : 0

Inside foo before eval.....
in=257
s=3
out=0

Inside foo after eval.....
in=273
s=3
out=0
=============nali_16_mux : New Iteration===========
Instance : 0

Inside foo before eval.....
in=273
s=3
out=0

Inside foo after eval.....
in=273
s=3
out=0
=============nali_16_mux : New Iteration===========
Instance : 0

Inside foo before eval.....
in=273
s=3
out=0

Inside foo after eval.....
in=257
s=3
out=0
=============nali_inverter : New Iteration===========
Instance : 2

Inside foo before eval.....
inv_in=1
inv_out=0

Inside foo after eval.....
inv_in=0
inv_out=1
=============nali_inverter : New Iteration===========
Instance : 3

Inside foo before eval.....
inv_in=0
inv_out=1

Inside foo after eval.....
inv_in=1
inv_out=0
=============nali_counter : New Iteration===========
Instance : 0

Inside foo before eval.....
clk=0
rst=0
count=3

Inside foo after eval.....
clk=1
rst=0
count=4
=============nali_counter : New Iteration===========
Instance : 0

Inside foo before eval.....
clk=1
rst=0
count=4

Inside foo after eval.....
clk=1
rst=0
count=4
=============nali_16_mux : New Iteration===========
Instance : 0

Inside foo before eval.....
in=257
s=3
out=0

Inside foo after eval.....
in=257
s=4
out=0
=============nali_inverter : New Iteration===========
Instance : 0

Inside foo before eval.....
inv_in=0
inv_out=1

Inside foo after eval.....
inv_in=1
inv_out=0
=============nali_inverter : New Iteration===========
Instance : 1

Inside foo before eval.....
inv_in=1
inv_out=0

Inside foo after eval.....
inv_in=0
inv_out=1
=============nali_counter : New Iteration===========
Instance : 0

Inside foo before eval.....
clk=1
rst=0
count=4

Inside foo after eval.....
clk=1
rst=0
count=4
=============nali_counter : New Iteration===========
Instance : 0

Inside foo before eval.....
clk=1
rst=0
count=4

Inside foo after eval.....
clk=0
rst=0
count=4
=============nali_16_mux : New Iteration===========
Instance : 0

Inside foo before eval.....
in=257
s=4
out=0

Inside foo after eval.....
in=273
s=4
out=1
=============nali_16_mux : New Iteration===========
Instance : 0

Inside foo before eval.....
in=273
s=4
out=1

Inside foo after eval.....
in=273
s=4
out=1
=============nali_inverter : New Iteration===========
Instance : 0

Inside foo before eval.....
inv_in=1
inv_out=0

Inside foo after eval.....
inv_in=0
inv_out=1
=============nali_inverter : New Iteration===========
Instance : 1

Inside foo before eval.....
inv_in=0
inv_out=1

Inside foo after eval.....
inv_in=1
inv_out=0
=============nali_counter : New Iteration===========
Instance : 0

Inside foo before eval.....
clk=0
rst=0
count=4

Inside foo after eval.....
clk=1
rst=0
count=5
=============nali_counter : New Iteration===========
Instance : 0

Inside foo before eval.....
clk=1
rst=0
count=5

Inside foo after eval.....
clk=1
rst=0
count=5
=============nali_16_mux : New Iteration===========
Instance : 0

Inside foo before eval.....
in=273
s=4
out=1

Inside foo after eval.....
in=273
s=5
out=0
=============nali_16_mux : New Iteration===========
Instance : 0

Inside foo before eval.....
in=273
s=5
out=0

Inside foo after eval.....
in=257
s=5
out=0
=============nali_inverter : New Iteration===========
Instance : 2

Inside foo before eval.....
inv_in=0
inv_out=1

Inside foo after eval.....
inv_in=1
inv_out=0
=============nali_inverter : New Iteration===========
Instance : 3

Inside foo before eval.....
inv_in=1
inv_out=0

Inside foo after eval.....
inv_in=0
inv_out=1
=============nali_counter : New Iteration===========
Instance : 0

Inside foo before eval.....
clk=1
rst=0
count=5

Inside foo after eval.....
clk=1
rst=0
count=5
=============nali_counter : New Iteration===========
Instance : 0

Inside foo before eval.....
clk=1
rst=0
count=5

Inside foo after eval.....
clk=0
rst=0
count=5
=============nali_16_mux : New Iteration===========
Instance : 0

Inside foo before eval.....
in=257
s=5
out=0

Inside foo after eval.....
in=273
s=5
out=0
=============nali_16_mux : New Iteration===========
Instance : 0

Inside foo before eval.....
in=273
s=5
out=0

Inside foo after eval.....
in=273
s=5
out=0
=============nali_16_mux : New Iteration===========
Instance : 0

Inside foo before eval.....
in=273
s=5
out=0

Inside foo after eval.....
in=257
s=5
out=0
=============nali_inverter : New Iteration===========
Instance : 2

Inside foo before eval.....
inv_in=1
inv_out=0

Inside foo after eval.....
inv_in=0
inv_out=1
=============nali_inverter : New Iteration===========
Instance : 3

Inside foo before eval.....
inv_in=0
inv_out=1

Inside foo after eval.....
inv_in=1
inv_out=0
=============nali_counter : New Iteration===========
Instance : 0

Inside foo before eval.....
clk=0
rst=0
count=5

Inside foo after eval.....
clk=1
rst=0
count=6
=============nali_counter : New Iteration===========
Instance : 0

Inside foo before eval.....
clk=1
rst=0
count=6

Inside foo after eval.....
clk=1
rst=0
count=6
=============nali_16_mux : New Iteration===========
Instance : 0

Inside foo before eval.....
in=257
s=5
out=0

Inside foo after eval.....
in=257
s=6
out=0
=============nali_inverter : New Iteration===========
Instance : 0

Inside foo before eval.....
inv_in=0
inv_out=1

Inside foo after eval.....
inv_in=1
inv_out=0
=============nali_inverter : New Iteration===========
Instance : 1

Inside foo before eval.....
inv_in=1
inv_out=0

Inside foo after eval.....
inv_in=0
inv_out=1
=============nali_counter : New Iteration===========
Instance : 0

Inside foo before eval.....
clk=1
rst=0
count=6

Inside foo after eval.....
clk=1
rst=0
count=6
=============nali_counter : New Iteration===========
Instance : 0

Inside foo before eval.....
clk=1
rst=0
count=6

Inside foo after eval.....
clk=0
rst=0
count=6
=============nali_16_mux : New Iteration===========
Instance : 0

Inside foo before eval.....
in=257
s=6
out=0

Inside foo after eval.....
in=273
s=6
out=0
=============nali_16_mux : New Iteration===========
Instance : 0

Inside foo before eval.....
in=273
s=6
out=0

Inside foo after eval.....
in=273
s=6
out=0
=============nali_16_mux : New Iteration===========
Instance : 0

Inside foo before eval.....
in=273
s=6
out=0

Inside foo after eval.....
in=257
s=6
out=0
=============nali_inverter : New Iteration===========
Instance : 0

Inside foo before eval.....
inv_in=1
inv_out=0

Inside foo after eval.....
inv_in=0
inv_out=1
=============nali_inverter : New Iteration===========
Instance : 1

Inside foo before eval.....
inv_in=0
inv_out=1

Inside foo after eval.....
inv_in=1
inv_out=0
=============nali_counter : New Iteration===========
Instance : 0

Inside foo before eval.....
clk=0
rst=0
count=6

Inside foo after eval.....
clk=1
rst=0
count=7
=============nali_counter : New Iteration===========
Instance : 0

Inside foo before eval.....
clk=1
rst=0
count=7

Inside foo after eval.....
clk=1
rst=0
count=7
=============nali_16_mux : New Iteration===========
Instance : 0

Inside foo before eval.....
in=257
s=6
out=0

Inside foo after eval.....
in=257
s=7
out=0
=============nali_inverter : New Iteration===========
Instance : 2

Inside foo before eval.....
inv_in=0
inv_out=1

Inside foo after eval.....
inv_in=1
inv_out=0
=============nali_inverter : New Iteration===========
Instance : 3

Inside foo before eval.....
inv_in=1
inv_out=0

Inside foo after eval.....
inv_in=0
inv_out=1
=============nali_counter : New Iteration===========
Instance : 0

Inside foo before eval.....
clk=1
rst=0
count=7

Inside foo after eval.....
clk=1
rst=0
count=7
=============nali_counter : New Iteration===========
Instance : 0

Inside foo before eval.....
clk=1
rst=0
count=7

Inside foo after eval.....
clk=0
rst=0
count=7
=============nali_16_mux : New Iteration===========
Instance : 0

Inside foo before eval.....
in=257
s=7
out=0

Inside foo after eval.....
in=273
s=7
out=0
=============nali_16_mux : New Iteration===========
Instance : 0

Inside foo before eval.....
in=273
s=7
out=0

Inside foo after eval.....
in=273
s=7
out=0
=============nali_16_mux : New Iteration===========
Instance : 0

Inside foo before eval.....
in=273
s=7
out=0

Inside foo after eval.....
in=257
s=7
out=0
=============nali_inverter : New Iteration===========
Instance : 2

Inside foo before eval.....
inv_in=1
inv_out=0

Inside foo after eval.....
inv_in=0
inv_out=1
=============nali_inverter : New Iteration===========
Instance : 3

Inside foo before eval.....
inv_in=0
inv_out=1

Inside foo after eval.....
inv_in=1
inv_out=0
=============nali_counter : New Iteration===========
Instance : 0

Inside foo before eval.....
clk=0
rst=0
count=7

Inside foo after eval.....
clk=1
rst=0
count=8
=============nali_counter : New Iteration===========
Instance : 0

Inside foo before eval.....
clk=1
rst=0
count=8

Inside foo after eval.....
clk=1
rst=0
count=8
=============nali_16_mux : New Iteration===========
Instance : 0

Inside foo before eval.....
in=257
s=7
out=0

Inside foo after eval.....
in=257
s=8
out=1
=============nali_inverter : New Iteration===========
Instance : 0

Inside foo before eval.....
inv_in=0
inv_out=1

Inside foo after eval.....
inv_in=1
inv_out=0
=============nali_inverter : New Iteration===========
Instance : 1

Inside foo before eval.....
inv_in=1
inv_out=0

Inside foo after eval.....
inv_in=0
inv_out=1
=============nali_counter : New Iteration===========
Instance : 0

Inside foo before eval.....
clk=1
rst=0
count=8

Inside foo after eval.....
clk=1
rst=0
count=8
=============nali_counter : New Iteration===========
Instance : 0

Inside foo before eval.....
clk=1
rst=0
count=8

Inside foo after eval.....
clk=0
rst=0
count=8
=============nali_16_mux : New Iteration===========
Instance : 0

Inside foo before eval.....
in=257
s=8
out=1

Inside foo after eval.....
in=273
s=8
out=1
=============nali_16_mux : New Iteration===========
Instance : 0

Inside foo before eval.....
in=273
s=8
out=1

Inside foo after eval.....
in=273
s=8
out=1
=============nali_inverter : New Iteration===========
Instance : 0

Inside foo before eval.....
inv_in=1
inv_out=0

Inside foo after eval.....
inv_in=0
inv_out=1
=============nali_inverter : New Iteration===========
Instance : 1

Inside foo before eval.....
inv_in=0
inv_out=1

Inside foo after eval.....
inv_in=1
inv_out=0
=============nali_counter : New Iteration===========
Instance : 0

Inside foo before eval.....
clk=0
rst=0
count=8

Inside foo after eval.....
clk=1
rst=0
count=9
=============nali_counter : New Iteration===========
Instance : 0

Inside foo before eval.....
clk=1
rst=0
count=9

Inside foo after eval.....
clk=1
rst=0
count=9
=============nali_16_mux : New Iteration===========
Instance : 0

Inside foo before eval.....
in=273
s=8
out=1

Inside foo after eval.....
in=273
s=9
out=0
=============nali_16_mux : New Iteration===========
Instance : 0

Inside foo before eval.....
in=273
s=9
out=0

Inside foo after eval.....
in=257
s=9
out=0
=============nali_inverter : New Iteration===========
Instance : 2

Inside foo before eval.....
inv_in=0
inv_out=1

Inside foo after eval.....
inv_in=1
inv_out=0
=============nali_inverter : New Iteration===========
Instance : 3

Inside foo before eval.....
inv_in=1
inv_out=0

Inside foo after eval.....
inv_in=0
inv_out=1
=============nali_counter : New Iteration===========
Instance : 0

Inside foo before eval.....
clk=1
rst=0
count=9

Inside foo after eval.....
clk=1
rst=0
count=9
=============nali_counter : New Iteration===========
Instance : 0

Inside foo before eval.....
clk=1
rst=0
count=9

Inside foo after eval.....
clk=0
rst=0
count=9
=============nali_16_mux : New Iteration===========
Instance : 0

Inside foo before eval.....
in=257
s=9
out=0

Inside foo after eval.....
in=273
s=9
out=0
=============nali_16_mux : New Iteration===========
Instance : 0

Inside foo before eval.....
in=273
s=9
out=0

Inside foo after eval.....
in=273
s=9
out=0
=============nali_16_mux : New Iteration===========
Instance : 0

Inside foo before eval.....
in=273
s=9
out=0

Inside foo after eval.....
in=257
s=9
out=0
=============nali_inverter : New Iteration===========
Instance : 2

Inside foo before eval.....
inv_in=1
inv_out=0

Inside foo after eval.....
inv_in=0
inv_out=1
=============nali_inverter : New Iteration===========
Instance : 3

Inside foo before eval.....
inv_in=0
inv_out=1

Inside foo after eval.....
inv_in=1
inv_out=0
=============nali_counter : New Iteration===========
Instance : 0

Inside foo before eval.....
clk=0
rst=0
count=9

Inside foo after eval.....
clk=1
rst=0
count=10
=============nali_counter : New Iteration===========
Instance : 0

Inside foo before eval.....
clk=1
rst=0
count=10

Inside foo after eval.....
clk=1
rst=0
count=10
=============nali_16_mux : New Iteration===========
Instance : 0

Inside foo before eval.....
in=257
s=9
out=0

Inside foo after eval.....
in=257
s=10
out=0
=============nali_inverter : New Iteration===========
Instance : 0

Inside foo before eval.....
inv_in=0
inv_out=1

Inside foo after eval.....
inv_in=1
inv_out=0
=============nali_inverter : New Iteration===========
Instance : 1

Inside foo before eval.....
inv_in=1
inv_out=0

Inside foo after eval.....
inv_in=0
inv_out=1
=============nali_counter : New Iteration===========
Instance : 0

Inside foo before eval.....
clk=1
rst=0
count=10

Inside foo after eval.....
clk=1
rst=0
count=10
=============nali_counter : New Iteration===========
Instance : 0

Inside foo before eval.....
clk=1
rst=0
count=10

Inside foo after eval.....
clk=0
rst=0
count=10
=============nali_16_mux : New Iteration===========
Instance : 0

Inside foo before eval.....
in=257
s=10
out=0

Inside foo after eval.....
in=273
s=10
out=0
=============nali_16_mux : New Iteration===========
Instance : 0

Inside foo before eval.....
in=273
s=10
out=0

Inside foo after eval.....
in=273
s=10
out=0
=============nali_inverter : New Iteration===========
Instance : 0

Inside foo before eval.....
inv_in=1
inv_out=0

Inside foo after eval.....
inv_in=0
inv_out=1
=============nali_inverter : New Iteration===========
Instance : 1

Inside foo before eval.....
inv_in=0
inv_out=1

Inside foo after eval.....
inv_in=1
inv_out=0
=============nali_counter : New Iteration===========
Instance : 0

Inside foo before eval.....
clk=0
rst=0
count=10

Inside foo after eval.....
clk=1
rst=0
count=11
=============nali_counter : New Iteration===========
Instance : 0

Inside foo before eval.....
clk=1
rst=0
count=11

Inside foo after eval.....
clk=1
rst=0
count=11
=============nali_16_mux : New Iteration===========
Instance : 0

Inside foo before eval.....
in=273
s=10
out=0

Inside foo after eval.....
in=273
s=11
out=0
=============nali_16_mux : New Iteration===========
Instance : 0

Inside foo before eval.....
in=273
s=11
out=0

Inside foo after eval.....
in=257
s=11
out=0
=============nali_inverter : New Iteration===========
Instance : 2

Inside foo before eval.....
inv_in=0
inv_out=1

Inside foo after eval.....
inv_in=1
inv_out=0
=============nali_inverter : New Iteration===========
Instance : 3

Inside foo before eval.....
inv_in=1
inv_out=0

Inside foo after eval.....
inv_in=0
inv_out=1
=============nali_counter : New Iteration===========
Instance : 0

Inside foo before eval.....
clk=1
rst=0
count=11

Inside foo after eval.....
clk=1
rst=0
count=11
=============nali_counter : New Iteration===========
Instance : 0

Inside foo before eval.....
clk=1
rst=0
count=11

Inside foo after eval.....
clk=0
rst=0
count=11
=============nali_16_mux : New Iteration===========
Instance : 0

Inside foo before eval.....
in=257
s=11
out=0

Inside foo after eval.....
in=273
s=11
out=0
=============nali_16_mux : New Iteration===========
Instance : 0

Inside foo before eval.....
in=273
s=11
out=0

Inside foo after eval.....
in=273
s=11
out=0
=============nali_16_mux : New Iteration===========
Instance : 0

Inside foo before eval.....
in=273
s=11
out=0

Inside foo after eval.....
in=257
s=11
out=0
=============nali_inverter : New Iteration===========
Instance : 2

Inside foo before eval.....
inv_in=1
inv_out=0

Inside foo after eval.....
inv_in=0
inv_out=1
=============nali_inverter : New Iteration===========
Instance : 3

Inside foo before eval.....
inv_in=0
inv_out=1

Inside foo after eval.....
inv_in=1
inv_out=0
=============nali_counter : New Iteration===========
Instance : 0

Inside foo before eval.....
clk=0
rst=0
count=11

Inside foo after eval.....
clk=1
rst=0
count=12
=============nali_counter : New Iteration===========
Instance : 0

Inside foo before eval.....
clk=1
rst=0
count=12

Inside foo after eval.....
clk=1
rst=0
count=12
=============nali_16_mux : New Iteration===========
Instance : 0

Inside foo before eval.....
in=257
s=11
out=0

Inside foo after eval.....
in=257
s=12
out=0
=============nali_inverter : New Iteration===========
Instance : 0

Inside foo before eval.....
inv_in=0
inv_out=1

Inside foo after eval.....
inv_in=1
inv_out=0
=============nali_inverter : New Iteration===========
Instance : 1

Inside foo before eval.....
inv_in=1
inv_out=0

Inside foo after eval.....
inv_in=0
inv_out=1
=============nali_counter : New Iteration===========
Instance : 0

Inside foo before eval.....
clk=1
rst=0
count=12

Inside foo after eval.....
clk=1
rst=0
count=12
=============nali_counter : New Iteration===========
Instance : 0

Inside foo before eval.....
clk=1
rst=0
count=12

Inside foo after eval.....
clk=0
rst=0
count=12
=============nali_16_mux : New Iteration===========
Instance : 0

Inside foo before eval.....
in=257
s=12
out=0

Inside foo after eval.....
in=273
s=12
out=0
=============nali_16_mux : New Iteration===========
Instance : 0

Inside foo before eval.....
in=273
s=12
out=0

Inside foo after eval.....
in=273
s=12
out=0
=============nali_inverter : New Iteration===========
Instance : 0

Inside foo before eval.....
inv_in=1
inv_out=0

Inside foo after eval.....
inv_in=0
inv_out=1
=============nali_inverter : New Iteration===========
Instance : 1

Inside foo before eval.....
inv_in=0
inv_out=1

Inside foo after eval.....
inv_in=1
inv_out=0
=============nali_counter : New Iteration===========
Instance : 0

Inside foo before eval.....
clk=0
rst=0
count=12

Inside foo after eval.....
clk=1
rst=0
count=13
=============nali_counter : New Iteration===========
Instance : 0

Inside foo before eval.....
clk=1
rst=0
count=13

Inside foo after eval.....
clk=1
rst=0
count=13
=============nali_16_mux : New Iteration===========
Instance : 0

Inside foo before eval.....
in=273
s=12
out=0

Inside foo after eval.....
in=273
s=13
out=0
=============nali_16_mux : New Iteration===========
Instance : 0

Inside foo before eval.....
in=273
s=13
out=0

Inside foo after eval.....
in=257
s=13
out=0
=============nali_inverter : New Iteration===========
Instance : 2

Inside foo before eval.....
inv_in=0
inv_out=1

Inside foo after eval.....
inv_in=1
inv_out=0
=============nali_inverter : New Iteration===========
Instance : 3

Inside foo before eval.....
inv_in=1
inv_out=0

Inside foo after eval.....
inv_in=0
inv_out=1
=============nali_counter : New Iteration===========
Instance : 0

Inside foo before eval.....
clk=1
rst=0
count=13

Inside foo after eval.....
clk=1
rst=0
count=13
=============nali_counter : New Iteration===========
Instance : 0

Inside foo before eval.....
clk=1
rst=0
count=13

Inside foo after eval.....
clk=0
rst=0
count=13
=============nali_16_mux : New Iteration===========
Instance : 0

Inside foo before eval.....
in=257
s=13
out=0

Inside foo after eval.....
in=273
s=13
out=0
=============nali_16_mux : New Iteration===========
Instance : 0

Inside foo before eval.....
in=273
s=13
out=0

Inside foo after eval.....
in=273
s=13
out=0
=============nali_16_mux : New Iteration===========
Instance : 0

Inside foo before eval.....
in=273
s=13
out=0

Inside foo after eval.....
in=257
s=13
out=0
=============nali_inverter : New Iteration===========
Instance : 2

Inside foo before eval.....
inv_in=1
inv_out=0

Inside foo after eval.....
inv_in=0
inv_out=1
=============nali_inverter : New Iteration===========
Instance : 3

Inside foo before eval.....
inv_in=0
inv_out=1

Inside foo after eval.....
inv_in=1
inv_out=0
=============nali_counter : New Iteration===========
Instance : 0

Inside foo before eval.....
clk=0
rst=0
count=13

Inside foo after eval.....
clk=1
rst=0
count=14
=============nali_counter : New Iteration===========
Instance : 0

Inside foo before eval.....
clk=1
rst=0
count=14

Inside foo after eval.....
clk=1
rst=0
count=14
=============nali_16_mux : New Iteration===========
Instance : 0

Inside foo before eval.....
in=257
s=13
out=0

Inside foo after eval.....
in=257
s=14
out=0
=============nali_inverter : New Iteration===========
Instance : 0

Inside foo before eval.....
inv_in=0
inv_out=1

Inside foo after eval.....
inv_in=1
inv_out=0
=============nali_inverter : New Iteration===========
Instance : 1

Inside foo before eval.....
inv_in=1
inv_out=0

Inside foo after eval.....
inv_in=0
inv_out=1
=============nali_counter : New Iteration===========
Instance : 0

Inside foo before eval.....
clk=1
rst=0
count=14

Inside foo after eval.....
clk=1
rst=0
count=14
=============nali_counter : New Iteration===========
Instance : 0

Inside foo before eval.....
clk=1
rst=0
count=14

Inside foo after eval.....
clk=0
rst=0
count=14
=============nali_16_mux : New Iteration===========
Instance : 0

Inside foo before eval.....
in=257
s=14
out=0

Inside foo after eval.....
in=273
s=14
out=0
=============nali_16_mux : New Iteration===========
Instance : 0

Inside foo before eval.....
in=273
s=14
out=0

Inside foo after eval.....
in=273
s=14
out=0
=============nali_16_mux : New Iteration===========
Instance : 0

Inside foo before eval.....
in=273
s=14
out=0

Inside foo after eval.....
in=257
s=14
out=0
=============nali_inverter : New Iteration===========
Instance : 0

Inside foo before eval.....
inv_in=1
inv_out=0

Inside foo after eval.....
inv_in=0
inv_out=1
=============nali_inverter : New Iteration===========
Instance : 1

Inside foo before eval.....
inv_in=0
inv_out=1

Inside foo after eval.....
inv_in=1
inv_out=0
=============nali_counter : New Iteration===========
Instance : 0

Inside foo before eval.....
clk=0
rst=0
count=14

Inside foo after eval.....
clk=1
rst=0
count=15
=============nali_counter : New Iteration===========
Instance : 0

Inside foo before eval.....
clk=1
rst=0
count=15

Inside foo after eval.....
clk=1
rst=0
count=15
=============nali_16_mux : New Iteration===========
Instance : 0

Inside foo before eval.....
in=257
s=14
out=0

Inside foo after eval.....
in=257
s=15
out=0
=============nali_inverter : New Iteration===========
Instance : 2

Inside foo before eval.....
inv_in=0
inv_out=1

Inside foo after eval.....
inv_in=1
inv_out=0
=============nali_inverter : New Iteration===========
Instance : 3

Inside foo before eval.....
inv_in=1
inv_out=0

Inside foo after eval.....
inv_in=0
inv_out=1
=============nali_counter : New Iteration===========
Instance : 0

Inside foo before eval.....
clk=1
rst=0
count=15

Inside foo after eval.....
clk=1
rst=0
count=15
=============nali_counter : New Iteration===========
Instance : 0

Inside foo before eval.....
clk=1
rst=0
count=15

Inside foo after eval.....
clk=0
rst=0
count=15
=============nali_16_mux : New Iteration===========
Instance : 0

Inside foo before eval.....
in=257
s=15
out=0

Inside foo after eval.....
in=273
s=15
out=0
=============nali_16_mux : New Iteration===========
Instance : 0

Inside foo before eval.....
in=273
s=15
out=0

Inside foo after eval.....
in=273
s=15
out=0
=============nali_16_mux : New Iteration===========
Instance : 0

Inside foo before eval.....
in=273
s=15
out=0

Inside foo after eval.....
in=257
s=15
out=0
=============nali_inverter : New Iteration===========
Instance : 2

Inside foo before eval.....
inv_in=1
inv_out=0

Inside foo after eval.....
inv_in=0
inv_out=1
=============nali_inverter : New Iteration===========
Instance : 3

Inside foo before eval.....
inv_in=0
inv_out=1

Inside foo after eval.....
inv_in=1
inv_out=0
=============nali_counter : New Iteration===========
Instance : 0

Inside foo before eval.....
clk=0
rst=0
count=15

Inside foo after eval.....
clk=1
rst=0
count=0
=============nali_counter : New Iteration===========
Instance : 0

Inside foo before eval.....
clk=1
rst=0
count=0

Inside foo after eval.....
clk=1
rst=0
count=0
=============nali_16_mux : New Iteration===========
Instance : 0

Inside foo before eval.....
in=257
s=15
out=0

Inside foo after eval.....
in=257
s=0
out=1
=============nali_16_mux : New Iteration===========
Instance : 0

Inside foo before eval.....
in=257
s=0
out=1

Inside foo after eval.....
in=273
s=0
out=1
=============nali_16_mux : New Iteration===========
Instance : 0

Inside foo before eval.....
in=273
s=0
out=1

Inside foo after eval.....
in=273
s=0
out=1
=============nali_inverter : New Iteration===========
Instance : 0

Inside foo before eval.....
inv_in=0
inv_out=1

Inside foo after eval.....
inv_in=1
inv_out=0
=============nali_inverter : New Iteration===========
Instance : 1

Inside foo before eval.....
inv_in=1
inv_out=0

Inside foo after eval.....
inv_in=0
inv_out=1
=============nali_counter : New Iteration===========
Instance : 0

Inside foo before eval.....
clk=1
rst=0
count=0

Inside foo after eval.....
clk=1
rst=0
count=0
=============nali_counter : New Iteration===========
Instance : 0

Inside foo before eval.....
clk=1
rst=0
count=0

Inside foo after eval.....
clk=0
rst=0
count=0
=============nali_16_mux : New Iteration===========
Instance : 0

Inside foo before eval.....
in=273
s=0
out=1

Inside foo after eval.....
in=257
s=0
out=1
=============nali_inverter : New Iteration===========
Instance : 0

Inside foo before eval.....
inv_in=1
inv_out=0

Inside foo after eval.....
inv_in=0
inv_out=1
=============nali_inverter : New Iteration===========
Instance : 1

Inside foo before eval.....
inv_in=0
inv_out=1

Inside foo after eval.....
inv_in=1
inv_out=0
=============nali_counter : New Iteration===========
Instance : 0

Inside foo before eval.....
clk=0
rst=0
count=0

Inside foo after eval.....
clk=1
rst=0
count=1
=============nali_counter : New Iteration===========
Instance : 0

Inside foo before eval.....
clk=1
rst=0
count=1

Inside foo after eval.....
clk=1
rst=0
count=1
=============nali_16_mux : New Iteration===========
Instance : 0

Inside foo before eval.....
in=257
s=0
out=1

Inside foo after eval.....
in=257
s=1
out=0
=============nali_inverter : New Iteration===========
Instance : 2

Inside foo before eval.....
inv_in=0
inv_out=1

Inside foo after eval.....
inv_in=1
inv_out=0
=============nali_inverter : New Iteration===========
Instance : 3

Inside foo before eval.....
inv_in=1
inv_out=0

Inside foo after eval.....
inv_in=0
inv_out=1
=============nali_counter : New Iteration===========
Instance : 0

Inside foo before eval.....
clk=1
rst=0
count=1

Inside foo after eval.....
clk=1
rst=0
count=1
=============nali_counter : New Iteration===========
Instance : 0

Inside foo before eval.....
clk=1
rst=0
count=1

Inside foo after eval.....
clk=0
rst=0
count=1
=============nali_16_mux : New Iteration===========
Instance : 0

Inside foo before eval.....
in=257
s=1
out=0

Inside foo after eval.....
in=273
s=1
out=0
=============nali_16_mux : New Iteration===========
Instance : 0

Inside foo before eval.....
in=273
s=1
out=0

Inside foo after eval.....
in=273
s=1
out=0
=============nali_16_mux : New Iteration===========
Instance : 0

Inside foo before eval.....
in=273
s=1
out=0

Inside foo after eval.....
in=257
s=1
out=0
=============nali_inverter : New Iteration===========
Instance : 2

Inside foo before eval.....
inv_in=1
inv_out=0

Inside foo after eval.....
inv_in=0
inv_out=1
=============nali_inverter : New Iteration===========
Instance : 3

Inside foo before eval.....
inv_in=0
inv_out=1

Inside foo after eval.....
inv_in=1
inv_out=0
=============nali_counter : New Iteration===========
Instance : 0

Inside foo before eval.....
clk=0
rst=0
count=1

Inside foo after eval.....
clk=1
rst=0
count=2
=============nali_counter : New Iteration===========
Instance : 0

Inside foo before eval.....
clk=1
rst=0
count=2

Inside foo after eval.....
clk=1
rst=0
count=2
=============nali_16_mux : New Iteration===========
Instance : 0

Inside foo before eval.....
in=257
s=1
out=0

Inside foo after eval.....
in=257
s=2
out=0
=============nali_16_mux : New Iteration===========
Instance : 0

Inside foo before eval.....
in=257
s=2
out=0

Inside foo after eval.....
in=273
s=2
out=0
=============nali_16_mux : New Iteration===========
Instance : 0

Inside foo before eval.....
in=273
s=2
out=0

Inside foo after eval.....
in=273
s=2
out=0
=============nali_inverter : New Iteration===========
Instance : 0

Inside foo before eval.....
inv_in=0
inv_out=1

Inside foo after eval.....
inv_in=1
inv_out=0
=============nali_inverter : New Iteration===========
Instance : 1

Inside foo before eval.....
inv_in=1
inv_out=0

Inside foo after eval.....
inv_in=0
inv_out=1
=============nali_counter : New Iteration===========
Instance : 0

Inside foo before eval.....
clk=1
rst=0
count=2

Inside foo after eval.....
clk=1
rst=0
count=2
=============nali_counter : New Iteration===========
Instance : 0

Inside foo before eval.....
clk=1
rst=0
count=2

Inside foo after eval.....
clk=0
rst=0
count=2
=============nali_16_mux : New Iteration===========
Instance : 0

Inside foo before eval.....
in=273
s=2
out=0

Inside foo after eval.....
in=257
s=2
out=0
=============nali_inverter : New Iteration===========
Instance : 0

Inside foo before eval.....
inv_in=1
inv_out=0

Inside foo after eval.....
inv_in=0
inv_out=1
=============nali_inverter : New Iteration===========
Instance : 1

Inside foo before eval.....
inv_in=0
inv_out=1

Inside foo after eval.....
inv_in=1
inv_out=0
=============nali_counter : New Iteration===========
Instance : 0

Inside foo before eval.....
clk=0
rst=0
count=2

Inside foo after eval.....
clk=1
rst=0
count=3
=============nali_counter : New Iteration===========
Instance : 0

Inside foo before eval.....
clk=1
rst=0
count=3

Inside foo after eval.....
clk=1
rst=0
count=3
=============nali_16_mux : New Iteration===========
Instance : 0

Inside foo before eval.....
in=257
s=2
out=0

Inside foo after eval.....
in=257
s=3
out=0
=============nali_inverter : New Iteration===========
Instance : 2

Inside foo before eval.....
inv_in=0
inv_out=1

Inside foo after eval.....
inv_in=1
inv_out=0
=============nali_inverter : New Iteration===========
Instance : 3

Inside foo before eval.....
inv_in=1
inv_out=0

Inside foo after eval.....
inv_in=0
inv_out=1
=============nali_counter : New Iteration===========
Instance : 0

Inside foo before eval.....
clk=1
rst=0
count=3

Inside foo after eval.....
clk=1
rst=0
count=3
=============nali_counter : New Iteration===========
Instance : 0

Inside foo before eval.....
clk=1
rst=0
count=3

Inside foo after eval.....
clk=0
rst=0
count=3
=============nali_16_mux : New Iteration===========
Instance : 0

Inside foo before eval.....
in=257
s=3
out=0

Inside foo after eval.....
in=273
s=3
out=0
=============nali_16_mux : New Iteration===========
Instance : 0

Inside foo before eval.....
in=273
s=3
out=0

Inside foo after eval.....
in=273
s=3
out=0
=============nali_16_mux : New Iteration===========
Instance : 0

Inside foo before eval.....
in=273
s=3
out=0

Inside foo after eval.....
in=257
s=3
out=0
=============nali_inverter : New Iteration===========
Instance : 2

Inside foo before eval.....
inv_in=1
inv_out=0

Inside foo after eval.....
inv_in=0
inv_out=1
=============nali_inverter : New Iteration===========
Instance : 3

Inside foo before eval.....
inv_in=0
inv_out=1

Inside foo after eval.....
inv_in=1
inv_out=0
=============nali_counter : New Iteration===========
Instance : 0

Inside foo before eval.....
clk=0
rst=0
count=3

Inside foo after eval.....
clk=1
rst=0
count=4
=============nali_counter : New Iteration===========
Instance : 0

Inside foo before eval.....
clk=1
rst=0
count=4

Inside foo after eval.....
clk=1
rst=0
count=4
=============nali_16_mux : New Iteration===========
Instance : 0

Inside foo before eval.....
in=257
s=3
out=0

Inside foo after eval.....
in=257
s=4
out=0
=============nali_inverter : New Iteration===========
Instance : 0

Inside foo before eval.....
inv_in=0
inv_out=1

Inside foo after eval.....
inv_in=1
inv_out=0
=============nali_inverter : New Iteration===========
Instance : 1

Inside foo before eval.....
inv_in=1
inv_out=0

Inside foo after eval.....
inv_in=0
inv_out=1
=============nali_counter : New Iteration===========
Instance : 0

Inside foo before eval.....
clk=1
rst=0
count=4

Inside foo after eval.....
clk=1
rst=0
count=4
=============nali_counter : New Iteration===========
Instance : 0

Inside foo before eval.....
clk=1
rst=0
count=4

Inside foo after eval.....
clk=0
rst=0
count=4
=============nali_16_mux : New Iteration===========
Instance : 0

Inside foo before eval.....
in=257
s=4
out=0

Inside foo after eval.....
in=273
s=4
out=1
=============nali_16_mux : New Iteration===========
Instance : 0

Inside foo before eval.....
in=273
s=4
out=1

Inside foo after eval.....
in=273
s=4
out=1
=============nali_inverter : New Iteration===========
Instance : 0

Inside foo before eval.....
inv_in=1
inv_out=0

Inside foo after eval.....
inv_in=0
inv_out=1
=============nali_inverter : New Iteration===========
Instance : 1

Inside foo before eval.....
inv_in=0
inv_out=1

Inside foo after eval.....
inv_in=1
inv_out=0
=============nali_counter : New Iteration===========
Instance : 0

Inside foo before eval.....
clk=0
rst=0
count=4

Inside foo after eval.....
clk=1
rst=0
count=5
=============nali_counter : New Iteration===========
Instance : 0

Inside foo before eval.....
clk=1
rst=0
count=5

Inside foo after eval.....
clk=1
rst=0
count=5
=============nali_16_mux : New Iteration===========
Instance : 0

Inside foo before eval.....
in=273
s=4
out=1

Inside foo after eval.....
in=273
s=5
out=0
=============nali_16_mux : New Iteration===========
Instance : 0

Inside foo before eval.....
in=273
s=5
out=0

Inside foo after eval.....
in=257
s=5
out=0
=============nali_inverter : New Iteration===========
Instance : 2

Inside foo before eval.....
inv_in=0
inv_out=1

Inside foo after eval.....
inv_in=1
inv_out=0
=============nali_inverter : New Iteration===========
Instance : 3

Inside foo before eval.....
inv_in=1
inv_out=0

Inside foo after eval.....
inv_in=0
inv_out=1
=============nali_counter : New Iteration===========
Instance : 0

Inside foo before eval.....
clk=1
rst=0
count=5

Inside foo after eval.....
clk=1
rst=0
count=5
=============nali_counter : New Iteration===========
Instance : 0

Inside foo before eval.....
clk=1
rst=0
count=5

Inside foo after eval.....
clk=0
rst=0
count=5
=============nali_16_mux : New Iteration===========
Instance : 0

Inside foo before eval.....
in=257
s=5
out=0

Inside foo after eval.....
in=273
s=5
out=0
=============nali_16_mux : New Iteration===========
Instance : 0

Inside foo before eval.....
in=273
s=5
out=0

Inside foo after eval.....
in=273
s=5
out=0
=============nali_16_mux : New Iteration===========
Instance : 0

Inside foo before eval.....
in=273
s=5
out=0

Inside foo after eval.....
in=257
s=5
out=0
=============nali_inverter : New Iteration===========
Instance : 2

Inside foo before eval.....
inv_in=1
inv_out=0

Inside foo after eval.....
inv_in=0
inv_out=1
=============nali_inverter : New Iteration===========
Instance : 3

Inside foo before eval.....
inv_in=0
inv_out=1

Inside foo after eval.....
inv_in=1
inv_out=0
=============nali_counter : New Iteration===========
Instance : 0

Inside foo before eval.....
clk=0
rst=0
count=5

Inside foo after eval.....
clk=1
rst=0
count=6
=============nali_counter : New Iteration===========
Instance : 0

Inside foo before eval.....
clk=1
rst=0
count=6

Inside foo after eval.....
clk=1
rst=0
count=6
=============nali_16_mux : New Iteration===========
Instance : 0

Inside foo before eval.....
in=257
s=5
out=0

Inside foo after eval.....
in=257
s=6
out=0
=============nali_inverter : New Iteration===========
Instance : 0

Inside foo before eval.....
inv_in=0
inv_out=1

Inside foo after eval.....
inv_in=1
inv_out=0
=============nali_inverter : New Iteration===========
Instance : 1

Inside foo before eval.....
inv_in=1
inv_out=0

Inside foo after eval.....
inv_in=0
inv_out=1
=============nali_counter : New Iteration===========
Instance : 0

Inside foo before eval.....
clk=1
rst=0
count=6

Inside foo after eval.....
clk=1
rst=0
count=6
=============nali_counter : New Iteration===========
Instance : 0

Inside foo before eval.....
clk=1
rst=0
count=6

Inside foo after eval.....
clk=0
rst=0
count=6
=============nali_inverter : New Iteration===========
Instance : 0

Inside foo before eval.....
inv_in=1
inv_out=0

Inside foo after eval.....
inv_in=1
inv_out=0
=============nali_16_mux : New Iteration===========
Instance : 0

Inside foo before eval.....
in=257
s=6
out=0

Inside foo after eval.....
in=273
s=6
out=0
=============nali_16_mux : New Iteration===========
Instance : 0

Inside foo before eval.....
in=273
s=6
out=0

Inside foo after eval.....
in=273
s=6
out=0
=============nali_16_mux : New Iteration===========
Instance : 0

Inside foo before eval.....
in=273
s=6
out=0

Inside foo after eval.....
in=257
s=6
out=0
=============nali_inverter : New Iteration===========
Instance : 0

Inside foo before eval.....
inv_in=1
inv_out=0

Inside foo after eval.....
inv_in=0
inv_out=1
=============nali_inverter : New Iteration===========
Instance : 1

Inside foo before eval.....
inv_in=0
inv_out=1

Inside foo after eval.....
inv_in=1
inv_out=0
=============nali_counter : New Iteration===========
Instance : 0

Inside foo before eval.....
clk=0
rst=0
count=6

Inside foo after eval.....
clk=1
rst=0
count=7
=============nali_counter : New Iteration===========
Instance : 0

Inside foo before eval.....
clk=1
rst=0
count=7

Inside foo after eval.....
clk=1
rst=0
count=7
=============nali_16_mux : New Iteration===========
Instance : 0

Inside foo before eval.....
in=257
s=6
out=0

Inside foo after eval.....
in=257
s=7
out=0
=============nali_inverter : New Iteration===========
Instance : 2

Inside foo before eval.....
inv_in=0
inv_out=1

Inside foo after eval.....
inv_in=1
inv_out=0
=============nali_inverter : New Iteration===========
Instance : 3

Inside foo before eval.....
inv_in=1
inv_out=0

Inside foo after eval.....
inv_in=0
inv_out=1
=============nali_counter : New Iteration===========
Instance : 0

Inside foo before eval.....
clk=1
rst=0
count=7

Inside foo after eval.....
clk=1
rst=0
count=7
=============nali_counter : New Iteration===========
Instance : 0

Inside foo before eval.....
clk=1
rst=0
count=7

Inside foo after eval.....
clk=0
rst=0
count=7
=============nali_inverter : New Iteration===========
Instance : 2

Inside foo before eval.....
inv_in=1
inv_out=0

Inside foo after eval.....
inv_in=1
inv_out=0
=============nali_16_mux : New Iteration===========
Instance : 0

Inside foo before eval.....
in=257
s=7
out=0

Inside foo after eval.....
in=273
s=7
out=0
=============nali_16_mux : New Iteration===========
Instance : 0

Inside foo before eval.....
in=273
s=7
out=0

Inside foo after eval.....
in=273
s=7
out=0
=============nali_16_mux : New Iteration===========
Instance : 0

Inside foo before eval.....
in=273
s=7
out=0

Inside foo after eval.....
in=257
s=7
out=0
=============nali_inverter : New Iteration===========
Instance : 2

Inside foo before eval.....
inv_in=1
inv_out=0

Inside foo after eval.....
inv_in=0
inv_out=1
=============nali_inverter : New Iteration===========
Instance : 3

Inside foo before eval.....
inv_in=0
inv_out=1

Inside foo after eval.....
inv_in=1
inv_out=0
=============nali_counter : New Iteration===========
Instance : 0

Inside foo before eval.....
clk=0
rst=0
count=7

Inside foo after eval.....
clk=1
rst=0
count=8
=============nali_counter : New Iteration===========
Instance : 0

Inside foo before eval.....
clk=1
rst=0
count=8

Inside foo after eval.....
clk=1
rst=0
count=8
=============nali_16_mux : New Iteration===========
Instance : 0

Inside foo before eval.....
in=257
s=7
out=0

Inside foo after eval.....
in=257
s=8
out=1
=============nali_inverter : New Iteration===========
Instance : 0

Inside foo before eval.....
inv_in=0
inv_out=1

Inside foo after eval.....
inv_in=1
inv_out=0
=============nali_inverter : New Iteration===========
Instance : 1

Inside foo before eval.....
inv_in=1
inv_out=0

Inside foo after eval.....
inv_in=0
inv_out=1
=============nali_counter : New Iteration===========
Instance : 0

Inside foo before eval.....
clk=1
rst=0
count=8

Inside foo after eval.....
clk=1
rst=0
count=8
=============nali_counter : New Iteration===========
Instance : 0

Inside foo before eval.....
clk=1
rst=0
count=8

Inside foo after eval.....
clk=0
rst=0
count=8
=============nali_16_mux : New Iteration===========
Instance : 0

Inside foo before eval.....
in=257
s=8
out=1

Inside foo after eval.....
in=273
s=8
out=1
=============nali_16_mux : New Iteration===========
Instance : 0

Inside foo before eval.....
in=273
s=8
out=1

Inside foo after eval.....
in=273
s=8
out=1
=============nali_16_mux : New Iteration===========
Instance : 0

Inside foo before eval.....
in=273
s=8
out=1

Inside foo after eval.....
in=257
s=8
out=1
=============nali_inverter : New Iteration===========
Instance : 0

Inside foo before eval.....
inv_in=1
inv_out=0

Inside foo after eval.....
inv_in=0
inv_out=1
=============nali_inverter : New Iteration===========
Instance : 1

Inside foo before eval.....
inv_in=0
inv_out=1

Inside foo after eval.....
inv_in=1
inv_out=0
=============nali_counter : New Iteration===========
Instance : 0

Inside foo before eval.....
clk=0
rst=0
count=8

Inside foo after eval.....
clk=1
rst=0
count=9
=============nali_counter : New Iteration===========
Instance : 0

Inside foo before eval.....
clk=1
rst=0
count=9

Inside foo after eval.....
clk=1
rst=0
count=9
=============nali_16_mux : New Iteration===========
Instance : 0

Inside foo before eval.....
in=257
s=8
out=1

Inside foo after eval.....
in=257
s=9
out=0
=============nali_inverter : New Iteration===========
Instance : 2

Inside foo before eval.....
inv_in=0
inv_out=1

Inside foo after eval.....
inv_in=1
inv_out=0
=============nali_inverter : New Iteration===========
Instance : 3

Inside foo before eval.....
inv_in=1
inv_out=0

Inside foo after eval.....
inv_in=0
inv_out=1
=============nali_counter : New Iteration===========
Instance : 0

Inside foo before eval.....
clk=1
rst=0
count=9

Inside foo after eval.....
clk=1
rst=0
count=9
=============nali_counter : New Iteration===========
Instance : 0

Inside foo before eval.....
clk=1
rst=0
count=9

Inside foo after eval.....
clk=0
rst=0
count=9
=============nali_16_mux : New Iteration===========
Instance : 0

Inside foo before eval.....
in=257
s=9
out=0

Inside foo after eval.....
in=273
s=9
out=0
=============nali_16_mux : New Iteration===========
Instance : 0

Inside foo before eval.....
in=273
s=9
out=0

Inside foo after eval.....
in=273
s=9
out=0
=============nali_16_mux : New Iteration===========
Instance : 0

Inside foo before eval.....
in=273
s=9
out=0

Inside foo after eval.....
in=257
s=9
out=0
=============nali_16_mux : New Iteration===========
Instance : 0

Inside foo before eval.....
in=257
s=9
out=0

Inside foo after eval.....
in=273
s=9
out=0
=============nali_16_mux : New Iteration===========
Instance : 0

Inside foo before eval.....
in=273
s=9
out=0

Inside foo after eval.....
in=273
s=9
out=0
=============nali_inverter : New Iteration===========
Instance : 2

Inside foo before eval.....
inv_in=1
inv_out=0

Inside foo after eval.....
inv_in=0
inv_out=1
=============nali_inverter : New Iteration===========
Instance : 3

Inside foo before eval.....
inv_in=0
inv_out=1

Inside foo after eval.....
inv_in=1
inv_out=0
=============nali_counter : New Iteration===========
Instance : 0

Inside foo before eval.....
clk=0
rst=0
count=9

Inside foo after eval.....
clk=1
rst=0
count=10
=============nali_counter : New Iteration===========
Instance : 0

Inside foo before eval.....
clk=1
rst=0
count=10

Inside foo after eval.....
clk=1
rst=0
count=10
=============nali_16_mux : New Iteration===========
Instance : 0

Inside foo before eval.....
in=273
s=9
out=0

Inside foo after eval.....
in=273
s=10
out=0
=============nali_inverter : New Iteration===========
Instance : 0

Inside foo before eval.....
inv_in=0
inv_out=1

Inside foo after eval.....
inv_in=1
inv_out=0
=============nali_inverter : New Iteration===========
Instance : 1

Inside foo before eval.....
inv_in=1
inv_out=0

Inside foo after eval.....
inv_in=0
inv_out=1
=============nali_counter : New Iteration===========
Instance : 0

Inside foo before eval.....
clk=1
rst=0
count=10

Inside foo after eval.....
clk=1
rst=0
count=10
=============nali_counter : New Iteration===========
Instance : 0

Inside foo before eval.....
clk=1
rst=0
count=10

Inside foo after eval.....
clk=0
rst=0
count=10
=============nali_16_mux : New Iteration===========
Instance : 0

Inside foo before eval.....
in=273
s=10
out=0

Inside foo after eval.....
in=257
s=10
out=0
=============nali_inverter : New Iteration===========
Instance : 0

Inside foo before eval.....
inv_in=1
inv_out=0

Inside foo after eval.....
inv_in=0
inv_out=1
=============nali_inverter : New Iteration===========
Instance : 1

Inside foo before eval.....
inv_in=0
inv_out=1

Inside foo after eval.....
inv_in=1
inv_out=0
=============nali_counter : New Iteration===========
Instance : 0

Inside foo before eval.....
clk=0
rst=0
count=10

Inside foo after eval.....
clk=1
rst=0
count=11
=============nali_counter : New Iteration===========
Instance : 0

Inside foo before eval.....
clk=1
rst=0
count=11

Inside foo after eval.....
clk=1
rst=0
count=11
=============nali_16_mux : New Iteration===========
Instance : 0

Inside foo before eval.....
in=257
s=10
out=0

Inside foo after eval.....
in=257
s=11
out=0
=============nali_inverter : New Iteration===========
Instance : 2

Inside foo before eval.....
inv_in=0
inv_out=1

Inside foo after eval.....
inv_in=1
inv_out=0
=============nali_inverter : New Iteration===========
Instance : 3

Inside foo before eval.....
inv_in=1
inv_out=0

Inside foo after eval.....
inv_in=0
inv_out=1
=============nali_counter : New Iteration===========
Instance : 0

Inside foo before eval.....
clk=1
rst=0
count=11

Inside foo after eval.....
clk=1
rst=0
count=11
=============nali_counter : New Iteration===========
Instance : 0

Inside foo before eval.....
clk=1
rst=0
count=11

Inside foo after eval.....
clk=0
rst=0
count=11
=============nali_16_mux : New Iteration===========
Instance : 0

Inside foo before eval.....
in=257
s=11
out=0

Inside foo after eval.....
in=273
s=11
out=0
=============nali_16_mux : New Iteration===========
Instance : 0

Inside foo before eval.....
in=273
s=11
out=0

Inside foo after eval.....
in=273
s=11
out=0
=============nali_16_mux : New Iteration===========
Instance : 0

Inside foo before eval.....
in=273
s=11
out=0

Inside foo after eval.....
in=257
s=11
out=0
=============nali_inverter : New Iteration===========
Instance : 2

Inside foo before eval.....
inv_in=1
inv_out=0

Inside foo after eval.....
inv_in=0
inv_out=1
=============nali_inverter : New Iteration===========
Instance : 3

Inside foo before eval.....
inv_in=0
inv_out=1

Inside foo after eval.....
inv_in=1
inv_out=0
=============nali_counter : New Iteration===========
Instance : 0

Inside foo before eval.....
clk=0
rst=0
count=11

Inside foo after eval.....
clk=1
rst=0
count=12
=============nali_counter : New Iteration===========
Instance : 0

Inside foo before eval.....
clk=1
rst=0
count=12

Inside foo after eval.....
clk=1
rst=0
count=12
=============nali_16_mux : New Iteration===========
Instance : 0

Inside foo before eval.....
in=257
s=11
out=0

Inside foo after eval.....
in=257
s=12
out=0
=============nali_inverter : New Iteration===========
Instance : 0

Inside foo before eval.....
inv_in=0
inv_out=1

Inside foo after eval.....
inv_in=1
inv_out=0
=============nali_inverter : New Iteration===========
Instance : 1

Inside foo before eval.....
inv_in=1
inv_out=0

Inside foo after eval.....
inv_in=0
inv_out=1
=============nali_counter : New Iteration===========
Instance : 0

Inside foo before eval.....
clk=1
rst=0
count=12

Inside foo after eval.....
clk=1
rst=0
count=12
=============nali_counter : New Iteration===========
Instance : 0

Inside foo before eval.....
clk=1
rst=0
count=12

Inside foo after eval.....
clk=0
rst=0
count=12
=============nali_16_mux : New Iteration===========
Instance : 0

Inside foo before eval.....
in=257
s=12
out=0

Inside foo after eval.....
in=273
s=12
out=0
=============nali_16_mux : New Iteration===========
Instance : 0

Inside foo before eval.....
in=273
s=12
out=0

Inside foo after eval.....
in=273
s=12
out=0
=============nali_inverter : New Iteration===========
Instance : 0

Inside foo before eval.....
inv_in=1
inv_out=0

Inside foo after eval.....
inv_in=0
inv_out=1
=============nali_inverter : New Iteration===========
Instance : 1

Inside foo before eval.....
inv_in=0
inv_out=1

Inside foo after eval.....
inv_in=1
inv_out=0
=============nali_counter : New Iteration===========
Instance : 0

Inside foo before eval.....
clk=0
rst=0
count=12

Inside foo after eval.....
clk=1
rst=0
count=13
=============nali_counter : New Iteration===========
Instance : 0

Inside foo before eval.....
clk=1
rst=0
count=13

Inside foo after eval.....
clk=1
rst=0
count=13
=============nali_16_mux : New Iteration===========
Instance : 0

Inside foo before eval.....
in=273
s=12
out=0

Inside foo after eval.....
in=273
s=13
out=0
=============nali_16_mux : New Iteration===========
Instance : 0

Inside foo before eval.....
in=273
s=13
out=0

Inside foo after eval.....
in=257
s=13
out=0
=============nali_inverter : New Iteration===========
Instance : 2

Inside foo before eval.....
inv_in=0
inv_out=1

Inside foo after eval.....
inv_in=1
inv_out=0
=============nali_inverter : New Iteration===========
Instance : 3

Inside foo before eval.....
inv_in=1
inv_out=0

Inside foo after eval.....
inv_in=0
inv_out=1
=============nali_counter : New Iteration===========
Instance : 0

Inside foo before eval.....
clk=1
rst=0
count=13

Inside foo after eval.....
clk=1
rst=0
count=13
=============nali_counter : New Iteration===========
Instance : 0

Inside foo before eval.....
clk=1
rst=0
count=13

Inside foo after eval.....
clk=0
rst=0
count=13
=============nali_inverter : New Iteration===========
Instance : 2

Inside foo before eval.....
inv_in=1
inv_out=0

Inside foo after eval.....
inv_in=1
inv_out=0
=============nali_16_mux : New Iteration===========
Instance : 0

Inside foo before eval.....
in=257
s=13
out=0

Inside foo after eval.....
in=273
s=13
out=0
=============nali_16_mux : New Iteration===========
Instance : 0

Inside foo before eval.....
in=273
s=13
out=0

Inside foo after eval.....
in=273
s=13
out=0
=============nali_16_mux : New Iteration===========
Instance : 0

Inside foo before eval.....
in=273
s=13
out=0

Inside foo after eval.....
in=257
s=13
out=0
=============nali_inverter : New Iteration===========
Instance : 2

Inside foo before eval.....
inv_in=1
inv_out=0

Inside foo after eval.....
inv_in=0
inv_out=1
=============nali_inverter : New Iteration===========
Instance : 3

Inside foo before eval.....
inv_in=0
inv_out=1

Inside foo after eval.....
inv_in=1
inv_out=0
=============nali_counter : New Iteration===========
Instance : 0

Inside foo before eval.....
clk=0
rst=0
count=13

Inside foo after eval.....
clk=1
rst=0
count=14
=============nali_counter : New Iteration===========
Instance : 0

Inside foo before eval.....
clk=1
rst=0
count=14

Inside foo after eval.....
clk=1
rst=0
count=14
=============nali_16_mux : New Iteration===========
Instance : 0

Inside foo before eval.....
in=257
s=13
out=0

Inside foo after eval.....
in=257
s=14
out=0
=============nali_inverter : New Iteration===========
Instance : 0

Inside foo before eval.....
inv_in=0
inv_out=1

Inside foo after eval.....
inv_in=1
inv_out=0
=============nali_inverter : New Iteration===========
Instance : 1

Inside foo before eval.....
inv_in=1
inv_out=0

Inside foo after eval.....
inv_in=0
inv_out=1
=============nali_counter : New Iteration===========
Instance : 0

Inside foo before eval.....
clk=1
rst=0
count=14

Inside foo after eval.....
clk=1
rst=0
count=14
=============nali_counter : New Iteration===========
Instance : 0

Inside foo before eval.....
clk=1
rst=0
count=14

Inside foo after eval.....
clk=0
rst=0
count=14
=============nali_16_mux : New Iteration===========
Instance : 0

Inside foo before eval.....
in=257
s=14
out=0

Inside foo after eval.....
in=273
s=14
out=0
=============nali_16_mux : New Iteration===========
Instance : 0

Inside foo before eval.....
in=273
s=14
out=0

Inside foo after eval.....
in=273
s=14
out=0
=============nali_16_mux : New Iteration===========
Instance : 0

Inside foo before eval.....
in=273
s=14
out=0

Inside foo after eval.....
in=257
s=14
out=0
=============nali_inverter : New Iteration===========
Instance : 0

Inside foo before eval.....
inv_in=1
inv_out=0

Inside foo after eval.....
inv_in=0
inv_out=1
=============nali_inverter : New Iteration===========
Instance : 1

Inside foo before eval.....
inv_in=0
inv_out=1

Inside foo after eval.....
inv_in=1
inv_out=0
=============nali_counter : New Iteration===========
Instance : 0

Inside foo before eval.....
clk=0
rst=0
count=14

Inside foo after eval.....
clk=1
rst=0
count=15
=============nali_counter : New Iteration===========
Instance : 0

Inside foo before eval.....
clk=1
rst=0
count=15

Inside foo after eval.....
clk=1
rst=0
count=15
=============nali_16_mux : New Iteration===========
Instance : 0

Inside foo before eval.....
in=257
s=14
out=0

Inside foo after eval.....
in=257
s=15
out=0
=============nali_inverter : New Iteration===========
Instance : 2

Inside foo before eval.....
inv_in=0
inv_out=1

Inside foo after eval.....
inv_in=1
inv_out=0
=============nali_inverter : New Iteration===========
Instance : 3

Inside foo before eval.....
inv_in=1
inv_out=0

Inside foo after eval.....
inv_in=0
inv_out=1
=============nali_counter : New Iteration===========
Instance : 0

Inside foo before eval.....
clk=1
rst=0
count=15

Inside foo after eval.....
clk=1
rst=0
count=15
=============nali_counter : New Iteration===========
Instance : 0

Inside foo before eval.....
clk=1
rst=0
count=15

Inside foo after eval.....
clk=0
rst=0
count=15
=============nali_16_mux : New Iteration===========
Instance : 0

Inside foo before eval.....
in=257
s=15
out=0

Inside foo after eval.....
in=273
s=15
out=0
=============nali_16_mux : New Iteration===========
Instance : 0

Inside foo before eval.....
in=273
s=15
out=0

Inside foo after eval.....
in=273
s=15
out=0
=============nali_16_mux : New Iteration===========
Instance : 0

Inside foo before eval.....
in=273
s=15
out=0

Inside foo after eval.....
in=257
s=15
out=0
=============nali_inverter : New Iteration===========
Instance : 2

Inside foo before eval.....
inv_in=1
inv_out=0

Inside foo after eval.....
inv_in=0
inv_out=1
=============nali_inverter : New Iteration===========
Instance : 3

Inside foo before eval.....
inv_in=0
inv_out=1

Inside foo after eval.....
inv_in=1
inv_out=0
=============nali_counter : New Iteration===========
Instance : 0

Inside foo before eval.....
clk=0
rst=0
count=15

Inside foo after eval.....
clk=1
rst=0
count=0
=============nali_counter : New Iteration===========
Instance : 0

Inside foo before eval.....
clk=1
rst=0
count=0

Inside foo after eval.....
clk=1
rst=0
count=0
=============nali_16_mux : New Iteration===========
Instance : 0

Inside foo before eval.....
in=257
s=15
out=0

Inside foo after eval.....
in=257
s=0
out=1
=============nali_inverter : New Iteration===========
Instance : 0

Inside foo before eval.....
inv_in=0
inv_out=1

Inside foo after eval.....
inv_in=1
inv_out=0
=============nali_inverter : New Iteration===========
Instance : 1

Inside foo before eval.....
inv_in=1
inv_out=0

Inside foo after eval.....
inv_in=0
inv_out=1
=============nali_counter : New Iteration===========
Instance : 0

Inside foo before eval.....
clk=1
rst=0
count=0

Inside foo after eval.....
clk=1
rst=0
count=0
=============nali_counter : New Iteration===========
Instance : 0

Inside foo before eval.....
clk=1
rst=0
count=0

Inside foo after eval.....
clk=0
rst=0
count=0
=============nali_16_mux : New Iteration===========
Instance : 0

Inside foo before eval.....
in=257
s=0
out=1

Inside foo after eval.....
in=273
s=0
out=1
=============nali_16_mux : New Iteration===========
Instance : 0

Inside foo before eval.....
in=273
s=0
out=1

Inside foo after eval.....
in=273
s=0
out=1
=============nali_inverter : New Iteration===========
Instance : 0

Inside foo before eval.....
inv_in=1
inv_out=0

Inside foo after eval.....
inv_in=0
inv_out=1
=============nali_inverter : New Iteration===========
[...]
s=1
out=0
=============nali_inverter : New Iteration===========
Instance : 6

Inside foo before eval.....
inv_in=1
inv_out=0

Inside foo after eval.....
inv_in=0
inv_out=1
=============nali_inverter : New Iteration===========
Instance : 7

Inside foo before eval.....
inv_in=0
inv_out=1

Inside foo after eval.....
inv_in=1
inv_out=0
=============nali_counter : New Iteration===========
Instance : 1

Inside foo before eval.....
clk=0
rst=0
count=1

Inside foo after eval.....
clk=1
rst=0
count=2
=============nali_counter : New Iteration===========
Instance : 1

Inside foo before eval.....
clk=1
rst=0
count=2

Inside foo after eval.....
clk=1
rst=0
count=2
=============nali_16_mux : New Iteration===========
Instance : 1

Inside foo before eval.....
in=257
s=1
out=0

Inside foo after eval.....
in=257
s=2
out=0
=============nali_inverter : New Iteration===========
Instance : 4

Inside foo before eval.....
inv_in=0
inv_out=1

Inside foo after eval.....
inv_in=1
inv_out=0
=============nali_inverter : New Iteration===========
Instance : 5

Inside foo before eval.....
inv_in=1
inv_out=0

Inside foo after eval.....
inv_in=0
inv_out=1
=============nali_counter : New Iteration===========
Instance : 1

Inside foo before eval.....
clk=1
rst=0
count=2

Inside foo after eval.....
clk=1
rst=0
count=2
=============nali_counter : New Iteration===========
Instance : 1

Inside foo before eval.....
clk=1
rst=0
count=2

Inside foo after eval.....
clk=0
rst=0
count=2
=============nali_16_mux : New Iteration===========
Instance : 1

Inside foo before eval.....
in=257
s=2
out=0

Inside foo after eval.....
in=273
s=2
out=0
=============nali_16_mux : New Iteration===========
Instance : 1

Inside foo before eval.....
in=273
s=2
out=0

Inside foo after eval.....
in=273
s=2
out=0
=============nali_16_mux : New Iteration===========
Instance : 1

Inside foo before eval.....
in=273
s=2
out=0

Inside foo after eval.....
in=257
s=2
out=0
=============nali_inverter : New Iteration===========
Instance : 4

Inside foo before eval.....
inv_in=1
inv_out=0

Inside foo after eval.....
inv_in=0
inv_out=1
=============nali_inverter : New Iteration===========
Instance : 5

Inside foo before eval.....
inv_in=0
inv_out=1

Inside foo after eval.....
inv_in=1
inv_out=0
=============nali_counter : New Iteration===========
Instance : 1

Inside foo before eval.....
clk=0
rst=0
count=2

Inside foo after eval.....
clk=1
rst=0
count=3
=============nali_counter : New Iteration===========
Instance : 1

Inside foo before eval.....
clk=1
rst=0
count=3

Inside foo after eval.....
clk=1
rst=0
count=3
=============nali_16_mux : New Iteration===========
Instance : 1

Inside foo before eval.....
in=257
s=2
out=0

Inside foo after eval.....
in=257
s=3
out=0
=============nali_inverter : New Iteration===========
Instance : 6

Inside foo before eval.....
inv_in=0
inv_out=1

Inside foo after eval.....
inv_in=1
inv_out=0
=============nali_inverter : New Iteration===========
Instance : 7

Inside foo before eval.....
inv_in=1
inv_out=0

Inside foo after eval.....
inv_in=0
inv_out=1
=============nali_counter : New Iteration===========
Instance : 1

Inside foo before eval.....
clk=1
rst=0
count=3

Inside foo after eval.....
clk=1
rst=0
count=3
=============nali_counter : New Iteration===========
Instance : 1

Inside foo before eval.....
clk=1
rst=0
count=3

Inside foo after eval.....
clk=0
rst=0
count=3
=============nali_16_mux : New Iteration===========
Instance : 1

Inside foo before eval.....
in=257
s=3
out=0

Inside foo after eval.....
in=273
s=3
out=0
=============nali_16_mux : New Iteration===========
Instance : 1

Inside foo before eval.....
in=273
s=3
out=0

Inside foo after eval.....
in=273
s=3
out=0
=============nali_16_mux : New Iteration===========
Instance : 1

Inside foo before eval.....
in=273
s=3
out=0

Inside foo after eval.....
in=257
s=3
out=0
=============nali_inverter : New Iteration===========
Instance : 6

Inside foo before eval.....
inv_in=1
inv_out=0

Inside foo after eval.....
inv_in=0
inv_out=1
=============nali_inverter : New Iteration===========
Instance : 7

Inside foo before eval.....
inv_in=0
inv_out=1

Inside foo after eval.....
inv_in=1
inv_out=0
=============nali_counter : New Iteration===========
Instance : 1

Inside foo before eval.....
clk=0
rst=0
count=3

Inside foo after eval.....
clk=1
rst=0
count=4
=============nali_counter : New Iteration===========
Instance : 1

Inside foo before eval.....
clk=1
rst=0
count=4

Inside foo after eval.....
clk=1
rst=0
count=4
=============nali_16_mux : New Iteration===========
Instance : 1

Inside foo before eval.....
in=257
s=3
out=0

Inside foo after eval.....
in=257
s=4
out=0
=============nali_inverter : New Iteration===========
Instance : 4

Inside foo before eval.....
inv_in=0
inv_out=1

Inside foo after eval.....
inv_in=1
inv_out=0
=============nali_inverter : New Iteration===========
Instance : 5

Inside foo before eval.....
inv_in=1
inv_out=0

Inside foo after eval.....
inv_in=0
inv_out=1
=============nali_counter : New Iteration===========
Instance : 1

Inside foo before eval.....
clk=1
rst=0
count=4

Inside foo after eval.....
clk=1
rst=0
count=4
=============nali_counter : New Iteration===========
Instance : 1

Inside foo before eval.....
clk=1
rst=0
count=4

Inside foo after eval.....
clk=0
rst=0
count=4
=============nali_16_mux : New Iteration===========
Instance : 1

Inside foo before eval.....
in=257
s=4
out=0

Inside foo after eval.....
in=273
s=4
out=1
=============nali_16_mux : New Iteration===========
Instance : 1

Inside foo before eval.....
in=273
s=4
out=1

Inside foo after eval.....
in=273
s=4
out=1
=============nali_inverter : New Iteration===========
Instance : 4

Inside foo before eval.....
inv_in=1
inv_out=0

Inside foo after eval.....
inv_in=0
inv_out=1
=============nali_inverter : New Iteration===========
Instance : 5

Inside foo before eval.....
inv_in=0
inv_out=1

Inside foo after eval.....
inv_in=1
inv_out=0
=============nali_counter : New Iteration===========
Instance : 1

Inside foo before eval.....
clk=0
rst=0
count=4

Inside foo after eval.....
clk=1
rst=0
count=5
=============nali_counter : New Iteration===========
Instance : 1

Inside foo before eval.....
clk=1
rst=0
count=5

Inside foo after eval.....
clk=1
rst=0
count=5
=============nali_16_mux : New Iteration===========
Instance : 1

Inside foo before eval.....
in=273
s=4
out=1

Inside foo after eval.....
in=273
s=5
out=0
=============nali_16_mux : New Iteration===========
Instance : 1

Inside foo before eval.....
in=273
s=5
out=0

Inside foo after eval.....
in=257
s=5
out=0
=============nali_inverter : New Iteration===========
Instance : 6

Inside foo before eval.....
inv_in=0
inv_out=1

Inside foo after eval.....
inv_in=1
inv_out=0
=============nali_inverter : New Iteration===========
Instance : 7

Inside foo before eval.....
inv_in=1
inv_out=0

Inside foo after eval.....
inv_in=0
inv_out=1
=============nali_counter : New Iteration===========
Instance : 1

Inside foo before eval.....
clk=1
rst=0
count=5

Inside foo after eval.....
clk=1
rst=0
count=5
=============nali_counter : New Iteration===========
Instance : 1

Inside foo before eval.....
clk=1
rst=0
count=5

Inside foo after eval.....
clk=0
rst=0
count=5
=============nali_16_mux : New Iteration===========
Instance : 1

Inside foo before eval.....
in=257
s=5
out=0

Inside foo after eval.....
in=273
s=5
out=0
=============nali_16_mux : New Iteration===========
Instance : 1

Inside foo before eval.....
in=273
s=5
out=0

Inside foo after eval.....
in=273
s=5
out=0
=============nali_16_mux : New Iteration===========
Instance : 1

Inside foo before eval.....
in=273
s=5
out=0

Inside foo after eval.....
in=257
s=5
out=0
=============nali_16_mux : New Iteration===========
Instance : 1

Inside foo before eval.....
in=257
s=5
out=0

Inside foo after eval.....
in=273
s=5
out=0
=============nali_16_mux : New Iteration===========
Instance : 1

Inside foo before eval.....
in=273
s=5
out=0

Inside foo after eval.....
in=273
s=5
out=0
=============nali_inverter : New Iteration===========
Instance : 6

Inside foo before eval.....
inv_in=1
inv_out=0

Inside foo after eval.....
inv_in=0
inv_out=1
=============nali_inverter : New Iteration===========
Instance : 7

Inside foo before eval.....
inv_in=0
inv_out=1

Inside foo after eval.....
inv_in=1
inv_out=0
=============nali_counter : New Iteration===========
Instance : 1

Inside foo before eval.....
clk=0
rst=0
count=5

Inside foo after eval.....
clk=1
rst=0
count=6
=============nali_counter : New Iteration===========
Instance : 1

Inside foo before eval.....
clk=1
rst=0
count=6

Inside foo after eval.....
clk=1
rst=0
count=6
=============nali_16_mux : New Iteration===========
Instance : 1

Inside foo before eval.....
in=273
s=5
out=0

Inside foo after eval.....
in=273
s=6
out=0
=============nali_inverter : New Iteration===========
Instance : 4

Inside foo before eval.....
inv_in=0
inv_out=1

Inside foo after eval.....
inv_in=1
inv_out=0
=============nali_inverter : New Iteration===========
Instance : 5

Inside foo before eval.....
inv_in=1
inv_out=0

Inside foo after eval.....
inv_in=0
inv_out=1
=============nali_counter : New Iteration===========
Instance : 1

Inside foo before eval.....
clk=1
rst=0
count=6

Inside foo after eval.....
clk=1
rst=0
count=6
=============nali_counter : New Iteration===========
Instance : 1

Inside foo before eval.....
clk=1
rst=0
count=6

Inside foo after eval.....
clk=0
rst=0
count=6
=============nali_inverter : New Iteration===========
Instance : 4

Inside foo before eval.....
inv_in=1
inv_out=0

Inside foo after eval.....
inv_in=1
inv_out=0
=============nali_16_mux : New Iteration===========
Instance : 1

Inside foo before eval.....
in=273
s=6
out=0

Inside foo after eval.....
in=257
s=6
out=0
=============nali_inverter : New Iteration===========
Instance : 4

Inside foo before eval.....
inv_in=1
inv_out=0

Inside foo after eval.....
inv_in=0
inv_out=1
=============nali_inverter : New Iteration===========
Instance : 5

Inside foo before eval.....
inv_in=0
inv_out=1

Inside foo after eval.....
inv_in=1
inv_out=0
=============nali_counter : New Iteration===========
Instance : 1

Inside foo before eval.....
clk=0
rst=0
count=6

Inside foo after eval.....
clk=1
rst=0
count=7
=============nali_counter : New Iteration===========
Instance : 1

Inside foo before eval.....
clk=1
rst=0
count=7

Inside foo after eval.....
clk=1
rst=0
count=7
=============nali_16_mux : New Iteration===========
Instance : 1

Inside foo before eval.....
in=257
s=6
out=0

Inside foo after eval.....
in=257
s=7
out=0
=============nali_inverter : New Iteration===========
Instance : 6

Inside foo before eval.....
inv_in=0
inv_out=1

Inside foo after eval.....
inv_in=1
inv_out=0
=============nali_inverter : New Iteration===========
Instance : 7

Inside foo before eval.....
inv_in=1
inv_out=0

Inside foo after eval.....
inv_in=0
inv_out=1
=============nali_counter : New Iteration===========
Instance : 1

Inside foo before eval.....
clk=1
rst=0
count=7

Inside foo after eval.....
clk=1
rst=0
count=7
=============nali_counter : New Iteration===========
Instance : 1

Inside foo before eval.....
clk=1
rst=0
count=7

Inside foo after eval.....
clk=0
rst=0
count=7
=============nali_16_mux : New Iteration===========
Instance : 1

Inside foo before eval.....
in=257
s=7
out=0

Inside foo after eval.....
in=273
s=7
out=0
=============nali_16_mux : New Iteration===========
Instance : 1

Inside foo before eval.....
in=273
s=7
out=0

Inside foo after eval.....
in=273
s=7
out=0
=============nali_16_mux : New Iteration===========
Instance : 1

Inside foo before eval.....
in=273
s=7
out=0

Inside foo after eval.....
in=257
s=7
out=0
=============nali_inverter : New Iteration===========
Instance : 6

Inside foo before eval.....
inv_in=1
inv_out=0

Inside foo after eval.....
inv_in=0
inv_out=1
=============nali_inverter : New Iteration===========
Instance : 7

Inside foo before eval.....
inv_in=0
inv_out=1

Inside foo after eval.....
inv_in=1
inv_out=0
=============nali_counter : New Iteration===========
Instance : 1

Inside foo before eval.....
clk=0
rst=0
count=7

Inside foo after eval.....
clk=1
rst=0
count=8
=============nali_counter : New Iteration===========
Instance : 1

Inside foo before eval.....
clk=1
rst=0
count=8

Inside foo after eval.....
clk=1
rst=0
count=8
=============nali_16_mux : New Iteration===========
Instance : 1

Inside foo before eval.....
in=257
s=7
out=0

Inside foo after eval.....
in=257
s=8
out=1
=============nali_inverter : New Iteration===========
Instance : 4

Inside foo before eval.....
inv_in=0
inv_out=1

Inside foo after eval.....
inv_in=1
inv_out=0
=============nali_inverter : New Iteration===========
Instance : 5

Inside foo before eval.....
inv_in=1
inv_out=0

Inside foo after eval.....
inv_in=0
inv_out=1
=============nali_counter : New Iteration===========
Instance : 1

Inside foo before eval.....
clk=1
rst=0
count=8

Inside foo after eval.....
clk=1
rst=0
count=8
=============nali_counter : New Iteration===========
Instance : 1

Inside foo before eval.....
clk=1
rst=0
count=8

Inside foo after eval.....
clk=0
rst=0
count=8
=============nali_16_mux : New Iteration===========
Instance : 1

Inside foo before eval.....
in=257
s=8
out=1

Inside foo after eval.....
in=273
s=8
out=1
=============nali_16_mux : New Iteration===========
Instance : 1

Inside foo before eval.....
in=273
s=8
out=1

Inside foo after eval.....
in=273
s=8
out=1
=============nali_inverter : New Iteration===========
Instance : 4

Inside foo before eval.....
inv_in=1
inv_out=0

Inside foo after eval.....
inv_in=0
inv_out=1
=============nali_inverter : New Iteration===========
Instance : 5

Inside foo before eval.....
inv_in=0
inv_out=1

Inside foo after eval.....
inv_in=1
inv_out=0
=============nali_counter : New Iteration===========
Instance : 1

Inside foo before eval.....
clk=0
rst=0
count=8

Inside foo after eval.....
clk=1
rst=0
count=9
=============nali_counter : New Iteration===========
Instance : 1

Inside foo before eval.....
clk=1
rst=0
count=9

Inside foo after eval.....
clk=1
rst=0
count=9
=============nali_16_mux : New Iteration===========
Instance : 1

Inside foo before eval.....
in=273
s=8
out=1

Inside foo after eval.....
in=273
s=9
out=0
=============nali_16_mux : New Iteration===========
Instance : 1

Inside foo before eval.....
in=273
s=9
out=0

Inside foo after eval.....
in=257
s=9
out=0
=============nali_inverter : New Iteration===========
Instance : 6

Inside foo before eval.....
inv_in=0
inv_out=1

Inside foo after eval.....
inv_in=1
inv_out=0
=============nali_inverter : New Iteration===========
Instance : 7

Inside foo before eval.....
inv_in=1
inv_out=0

Inside foo after eval.....
inv_in=0
inv_out=1
=============nali_counter : New Iteration===========
Instance : 1

Inside foo before eval.....
clk=1
rst=0
count=9

Inside foo after eval.....
clk=1
rst=0
count=9
=============nali_counter : New Iteration===========
Instance : 1

Inside foo before eval.....
clk=1
rst=0
count=9

Inside foo after eval.....
clk=0
rst=0
count=9
=============nali_16_mux : New Iteration===========
Instance : 1

Inside foo before eval.....
in=257
s=9
out=0

Inside foo after eval.....
in=273
s=9
out=0
=============nali_16_mux : New Iteration===========
Instance : 1

Inside foo before eval.....
in=273
s=9
out=0

Inside foo after eval.....
in=273
s=9
out=0
=============nali_16_mux : New Iteration===========
Instance : 1

Inside foo before eval.....
in=273
s=9
out=0

Inside foo after eval.....
in=257
s=9
out=0
=============nali_inverter : New Iteration===========
Instance : 6

Inside foo before eval.....
inv_in=1
inv_out=0

Inside foo after eval.....
inv_in=0
inv_out=1
=============nali_inverter : New Iteration===========
Instance : 7

Inside foo before eval.....
inv_in=0
inv_out=1

Inside foo after eval.....
inv_in=1
inv_out=0
=============nali_counter : New Iteration===========
Instance : 1

Inside foo before eval.....
clk=0
rst=0
count=9

Inside foo after eval.....
clk=1
rst=0
count=10
=============nali_counter : New Iteration===========
Instance : 1

Inside foo before eval.....
clk=1
rst=0
count=10

Inside foo after eval.....
clk=1
rst=0
count=10
=============nali_16_mux : New Iteration===========
Instance : 1

Inside foo before eval.....
in=257
s=9
out=0

Inside foo after eval.....
in=257
s=10
out=0
=============nali_inverter : New Iteration===========
Instance : 4

Inside foo before eval.....
inv_in=0
inv_out=1

Inside foo after eval.....
inv_in=1
inv_out=0
=============nali_inverter : New Iteration===========
Instance : 5

Inside foo before eval.....
inv_in=1
inv_out=0

Inside foo after eval.....
inv_in=0
inv_out=1
=============nali_counter : New Iteration===========
Instance : 1

Inside foo before eval.....
clk=1
rst=0
count=10

Inside foo after eval.....
clk=1
rst=0
count=10
=============nali_counter : New Iteration===========
Instance : 1

Inside foo before eval.....
clk=1
rst=0
count=10

Inside foo after eval.....
clk=0
rst=0
count=10
=============nali_inverter : New Iteration===========
Instance : 4

Inside foo before eval.....
inv_in=1
inv_out=0

Inside foo after eval.....
inv_in=1
inv_out=0
=============nali_16_mux : New Iteration===========
Instance : 1

Inside foo before eval.....
in=257
s=10
out=0

Inside foo after eval.....
in=273
s=10
out=0
=============nali_16_mux : New Iteration===========
Instance : 1

Inside foo before eval.....
in=273
s=10
out=0

Inside foo after eval.....
in=273
s=10
out=0
=============nali_inverter : New Iteration===========
Instance : 4

Inside foo before eval.....
inv_in=1
inv_out=0

Inside foo after eval.....
inv_in=0
inv_out=1
=============nali_inverter : New Iteration===========
Instance : 5

Inside foo before eval.....
inv_in=0
inv_out=1

Inside foo after eval.....
inv_in=1
inv_out=0
=============nali_counter : New Iteration===========
Instance : 1

Inside foo before eval.....
clk=0
rst=0
count=10

Inside foo after eval.....
clk=1
rst=0
count=11
=============nali_counter : New Iteration===========
Instance : 1

Inside foo before eval.....
clk=1
rst=0
count=11

Inside foo after eval.....
clk=1
rst=0
count=11
=============nali_16_mux : New Iteration===========
Instance : 1

Inside foo before eval.....
in=273
s=10
out=0

Inside foo after eval.....
in=273
s=11
out=0
=============nali_inverter : New Iteration===========
Instance : 6

Inside foo before eval.....
inv_in=0
inv_out=1

Inside foo after eval.....
inv_in=1
inv_out=0
=============nali_inverter : New Iteration===========
Instance : 7

Inside foo before eval.....
inv_in=1
inv_out=0

Inside foo after eval.....
inv_in=0
inv_out=1
=============nali_counter : New Iteration===========
Instance : 1

Inside foo before eval.....
clk=1
rst=0
count=11

Inside foo after eval.....
clk=1
rst=0
count=11
=============nali_counter : New Iteration===========
Instance : 1

Inside foo before eval.....
clk=1
rst=0
count=11

Inside foo after eval.....
clk=0
rst=0
count=11
=============nali_16_mux : New Iteration===========
Instance : 1

Inside foo before eval.....
in=273
s=11
out=0

Inside foo after eval.....
in=257
s=11
out=0
=============nali_16_mux : New Iteration===========
Instance : 1

Inside foo before eval.....
in=257
s=11
out=0

Inside foo after eval.....
in=273
s=11
out=0
=============nali_16_mux : New Iteration===========
Instance : 1

Inside foo before eval.....
in=273
s=11
out=0

Inside foo after eval.....
in=273
s=11
out=0
=============nali_16_mux : New Iteration===========
Instance : 1

Inside foo before eval.....
in=273
s=11
out=0

Inside foo after eval.....
in=257
s=11
out=0

No. of Data Rows : 30120

Total analysis time (seconds) = 24.6333

Total CPU time (seconds) = 31.604 

Total DRAM available = 257855.305 MB.
DRAM currently available = 141266.203 MB.
Maximum ngspice program size =  205.281 MB.
Current ngspice program size =  127.586 MB.

Shared ngspice pages =    9.418 MB.
Text (code) pages =    6.285 MB.
Stack = 0 bytes.
Library pages =  118.848 MB.

